File C:\Users\03 Working 2\02 Calc\Chimney\250m model\250m Chimney.$2k was saved on m/d/yy at h:mm:ss
 
TABLE:  "ACTIVE DEGREES OF FREEDOM"
   UX=Yes   UY=Yes   UZ=Yes   RX=Yes   RY=Yes   RZ=Yes
 
TABLE:  "ANALYSIS OPTIONS"
   Solver=Advanced   SolverProc=Auto   Force32Bit=No   StiffCase=None   GeomMod=None   HingeOpt="In Elements"   NumAThreads=0   MaxFileSize=0   NumDThreads=0   NumRThreads=0   UseMMFiles="Program Determined"   AllowDiff=No
 
TABLE:  "AUTO WAVE 3 - WAVE CHARACTERISTICS - GENERAL"
   WaveChar=Default   WaveType="From Theory"   KinFactor=1   SWaterDepth=45   WaveHeight=18   WavePeriod=12   WaveTheory=Linear
 
TABLE:  "AUTO WIND - CHINESE 2010"
   LoadPat=WIND_X   ExposeFrom=Diaphragms   Angle=0   BldgWidth=1   ShapeCoeff=1   ComboType=1   IsTower=No   UserZ=No   WindSpeed=0.45   GrndRough=B   AcrossWind=No   TorsionWind=No   PhiZSource="Z/H Ratio"   T1Source="Modal Analysis" _
        DampRatio=0.05   ExpWidth="From diaphs"
   LoadPat=WIND_Y   ExposeFrom=Diaphragms   Angle=0   BldgWidth=1   ShapeCoeff=1   ComboType=1   IsTower=No   UserZ=No   WindSpeed=0.45   GrndRough=B   AcrossWind=No   TorsionWind=No   PhiZSource="Z/H Ratio"   T1Source="Modal Analysis" _
        DampRatio=0.05   ExpWidth="From diaphs"
 
TABLE:  "AUTO WIND EXPOSURE FOR HORIZONTAL DIAPHRAGMS"
   LoadPat=WIND_X
   LoadPat=WIND_Y
 
TABLE:  "CASE - MODAL 1 - GENERAL"
   Case=MODAL_PD   ModeType=Eigen   MaxNumModes=30   MinNumModes=10   EigenShift=0   EigenCutoff=0   EigenTol=1E-09   AutoShift=Yes
 
TABLE:  "CASE - RESPONSE SPECTRUM 1 - GENERAL"
   Case=RSX   ModalCombo=CQC   GMCf1=1   GMCf2=0   PerRigid=SRSS   DirCombo=SRSS   ConstDamp=0.04   EccenRatio=0
   Case=RSY   ModalCombo=CQC   GMCf1=1   GMCf2=0   PerRigid=SRSS   DirCombo=SRSS   ConstDamp=0.04   EccenRatio=0
   Case=RSZ   ModalCombo=CQC   GMCf1=1   GMCf2=0   PerRigid=SRSS   DirCombo=SRSS   ConstDamp=0.04   EccenRatio=0
 
TABLE:  "CASE - RESPONSE SPECTRUM 2 - LOAD ASSIGNMENTS"
   Case=RSX   LoadName=U1   CoordSys=GLOBAL   Function=RS_0.5   Angle=0   TransAccSF=9.81
   Case=RSY   LoadName=U2   CoordSys=GLOBAL   Function=RS_0.5   Angle=0   TransAccSF=9.81
   Case=RSZ   LoadName=U3   CoordSys=GLOBAL   Function=RS_0.5   Angle=0   TransAccSF=9.81
 
TABLE:  "CASE - STATIC 1 - LOAD ASSIGNMENTS"
   Case=DEAD_P_Delta   LoadType="Load pattern"   LoadName=DEAD   LoadSF=1
   Case=SUPERDEAD   LoadType="Load pattern"   LoadName=SUPERDEAD   LoadSF=1
   Case=WIND_X   LoadType="Load pattern"   LoadName=WIND_X   LoadSF=1.2
   Case=WIND_Y   LoadType="Load pattern"   LoadName=WIND_Y   LoadSF=1
   Case=Static   LoadType="Load pattern"   LoadName=DEAD   LoadSF=1
   Case=Static   LoadType="Load pattern"   LoadName=SUPERDEAD   LoadSF=1
   Case="Static-1.2 Factor"   LoadType="Load pattern"   LoadName=DEAD   LoadSF=1.2
   Case="Static-1.2 Factor"   LoadType="Load pattern"   LoadName=SUPERDEAD   LoadSF=1.2
   Case=WIND_X-1   LoadType="Load pattern"   LoadName=WIND_X   LoadSF=1.2
 
TABLE:  "CASE - STATIC 2 - NONLINEAR LOAD APPLICATION"
   Case=DEAD_P_Delta   LoadApp="Full Load"   MonitorDOF=U1   MonitorJt=26_238.3m
   Case=Static   LoadApp="Full Load"   MonitorDOF=U1   MonitorJt=26_238.3m
   Case="Static-1.2 Factor"   LoadApp="Full Load"   MonitorDOF=U1   MonitorJt=26_238.3m
 
TABLE:  "CASE - STATIC 4 - NONLINEAR PARAMETERS"
   Case=DEAD_P_Delta   GeoNonLin=P-Delta   ResultsSave="Final State"   SolScheme="Iterative Events"   MaxTotal=200   MaxNull=50   EvLumpTol=0.01   MaxEvPerStp=24   MaxIterCS=10   MaxIterNR=40   ItConvTol=0.0001   TFMaxIter=10   TFTol=0.01 _
        TFAccelFact=1   TFNoStop=No
   Case=Static   GeoNonLin=P-Delta   ResultsSave="Final State"   SolScheme="Iterative Events"   MaxTotal=200   MaxNull=50   EvLumpTol=0.01   MaxEvPerStp=24   MaxIterCS=10   MaxIterNR=40   ItConvTol=0.0001   TFMaxIter=10   TFTol=0.01 _
        TFAccelFact=1   TFNoStop=No
   Case="Static-1.2 Factor"   GeoNonLin=P-Delta   ResultsSave="Final State"   SolScheme="Iterative Events"   MaxTotal=200   MaxNull=50   EvLumpTol=0.01   MaxEvPerStp=24   MaxIterCS=10   MaxIterNR=40   ItConvTol=0.0001   TFMaxIter=10 _
        TFTol=0.01   TFAccelFact=1   TFNoStop=No
 
TABLE:  "COMBINATION DEFINITIONS"
   ComboName=Equake_X&Wind_X   ComboType="Linear Add"   AutoDesign=No   CaseName=DEAD_P_Delta   ScaleFactor=1.3   SteelDesign=None   ConcDesign=None   AlumDesign=None   ColdDesign=None   GUID=2c230cca-e98b-4672-a2f7-36e988766edb
   ComboName=Equake_X&Wind_X   CaseName=SUPERDEAD   ScaleFactor=1.3
   ComboName=Equake_X&Wind_X   CaseName=RSX   ScaleFactor=1.4
   ComboName=Equake_X&Wind_X   CaseName=WIND_X   ScaleFactor=0.3
   ComboName=Equake_X&Wind_X   CaseName=RSZ   ScaleFactor=0.5
   ComboName=Equake_X&Wind_Y   ComboType="Linear Add"   AutoDesign=No   CaseName=DEAD_P_Delta   ScaleFactor=1.3   SteelDesign=None   ConcDesign=None   AlumDesign=None   ColdDesign=None   GUID=f72ec498-958d-405a-8042-1a4ad3963cba
   ComboName=Equake_X&Wind_Y   CaseName=SUPERDEAD   ScaleFactor=1.3
   ComboName=Equake_X&Wind_Y   CaseName=RSY   ScaleFactor=1.4
   ComboName=Equake_X&Wind_Y   CaseName=WIND_X   ScaleFactor=0.3
   ComboName=Equake_X&Wind_Y   CaseName=RSZ   ScaleFactor=0.5
   ComboName=COMB1_Wind-X   ComboType="Linear Add"   AutoDesign=No   CaseName=DEAD_P_Delta   ScaleFactor=1.3   SteelDesign=None   ConcDesign=None   AlumDesign=None   ColdDesign=None   GUID=0e8cf3e7-2d6d-4fea-a491-7f5f47f03cdf
   ComboName=COMB1_Wind-X   CaseName=SUPERDEAD   ScaleFactor=1.3
   ComboName=COMB1_Wind-X   CaseName=RSX   ScaleFactor=1.4
   ComboName=COMB1_Wind-X   CaseName=WIND_X   ScaleFactor=-0.3
   ComboName="Foundation Check"   ComboType="Linear Add"   AutoDesign=No   CaseName=DEAD_P_Delta   ScaleFactor=1   SteelDesign=None   ConcDesign=None   AlumDesign=None   ColdDesign=None   GUID=97e0c09d-1106-4975-bd81-edd22cf364f5
   ComboName="Foundation Check"   CaseName=SUPERDEAD   ScaleFactor=1
   ComboName="Foundation Check"   CaseName=WIND_X   ScaleFactor=0.3
   ComboName="Foundation Check"   CaseName=RSX   ScaleFactor=1
   ComboName="Tilting Check: 1.0G+1.0EQ+0.2W"   ComboType="Linear Add"   AutoDesign=No   CaseName=DEAD_P_Delta   ScaleFactor=1   SteelDesign=None   ConcDesign=None   AlumDesign=None   ColdDesign=None   GUID=730517a4-e986-4b68-9904-9add01e3e11e
   ComboName="Tilting Check: 1.0G+1.0EQ+0.2W"   CaseName=RSX   ScaleFactor=1
   ComboName="Tilting Check: 1.0G+1.0EQ+0.2W"   CaseName=WIND_X   ScaleFactor=0.2
 
TABLE:  "CONNECTIVITY - FRAME"
   Frame="Frame 1_0~3.8m"   JointI=1_0m   JointJ=2_3.8m   IsCurved=No   GUID=c6b3fa11-76c2-4342-af60-071d0b2011d6
   Frame="Frame 11_38~42m"   JointI=11_38m   JointJ=12_42m   IsCurved=No   GUID=3c4487e0-08e6-4fc7-891b-132fa7f76c7f
   Frame="Frame 2_3.8~7.6m"   JointI=2_3.8m   JointJ=3_7.6m   IsCurved=No   GUID=ab7a462f-0205-44e1-bccd-6a98c01a7f61
   Frame="Frame 5_15.2~19m"   JointI=5_15.2   JointJ=6_19m   IsCurved=No   GUID=f983dd3e-f0bb-4474-b3da-cf8a94b78865
   Frame="Frame 6_19~22.8m"   JointI=6_19m   JointJ=7_22.8m   IsCurved=No   GUID=355adc21-6804-4170-96e8-e672cae0b78b
   Frame="Frame 10_34.2~38m"   JointI=10_34.2m   JointJ=11_38m   IsCurved=No   GUID=1f0bfaa1-121b-4cc7-9721-8b0dfa00a38b
   Frame="Frame 3_7.6~11.4m"   JointI=3_7.6m   JointJ=4_11.4m   IsCurved=No   GUID=4f26335b-1ca1-450e-a415-52c353c0b016
   Frame="Frame 4_11.4~15.2m"   JointI=4_11.4m   JointJ=5_15.2   IsCurved=No   GUID=9610d3d7-2f53-41fa-821b-d56c67e670c6
   Frame="Frame 7_22.8~26.6m"   JointI=7_22.8m   JointJ=8_26.6m   IsCurved=No   GUID=9bc4324a-0cf3-49fe-8238-b5f305376a4b
   Frame="Frame 8_26.6~30.4m"   JointI=8_26.6m   JointJ=9_30.4m   IsCurved=No   GUID=97107ddd-6897-4d4e-a1a8-fe17733c749a
   Frame="Frame 9_30.4~34.2m"   JointI=9_30.4m   JointJ=10_34.2m   IsCurved=No   GUID=5c408928-6e14-49ca-a890-e3394e90f3f1
   Frame="Frame 12_42~47.796m"   JointI=12_42m   JointJ=13_47.796m   IsCurved=No   GUID=91fd6ae8-8821-4300-b5c3-283c9e3008a8
   Frame="Frame 21_108~238.3m"   JointI=21_108m   JointJ=26_238.3m   IsCurved=No   GUID=1fbe5590-a71c-4eea-a96b-20af6f8255e4
   Frame="Frame 20_88.368~108m"   JointI=20_88.368m   JointJ=21_108m   IsCurved=No   GUID=a2318b5a-09a7-442e-9f29-4d892eb09fdb
   Frame="Frame 16_65.184~70.98m"   JointI=16_65.184m   JointJ=17_70.98m   IsCurved=No   GUID=41257236-f6d0-49af-939e-7dc1bd3c9a57
   Frame="Frame 17_70.98~76.776m"   JointI=17_70.98m   JointJ=18_76.776m   IsCurved=No   GUID=655c193b-b4c9-4af1-8039-6d6c0ec33c22
   Frame="Frame 13_47.796~53.592m"   JointI=13_47.796m   JointJ=14_53.592n   IsCurved=No   GUID=a28798ed-b433-4dc1-ae1d-4b6fd23d3f4b
   Frame="Frame 14_53.592~59.388m"   JointI=14_53.592n   JointJ=15_59.388m   IsCurved=No   GUID=03f3be2a-98ca-4d3d-a609-7cc4b917145d
   Frame="Frame 15_59.388~65.184m"   JointI=15_59.388m   JointJ=16_65.184m   IsCurved=No   GUID=d591d6e6-880f-4fdf-a5d6-d4d163c483df
   Frame="Frame 18_76.776~82.572m"   JointI=18_76.776m   JointJ=19_82.572m   IsCurved=No   GUID=18cc907e-7b0a-4b4d-a6b6-5c3b5342878e
   Frame="Frame 19_82.572~88.368m"   JointI=19_82.572m   JointJ=20_88.368m   IsCurved=No   GUID=d8f7c499-ac04-4ee5-abf4-6925f5c32dff
 
TABLE:  "CONSTRAINT DEFINITIONS - BODY"
   Name=BODY1   CoordSys=GLOBAL   UX=Yes   UY=Yes   UZ=Yes   RX=Yes   RY=Yes   RZ=Yes
 
TABLE:  "COORDINATE SYSTEMS"
   Name=GLOBAL   Type=Cartesian   X=0   Y=0   Z=0   AboutZ=0   AboutY=0   AboutX=0
 
TABLE:  "DATABASE DOCUMENTATION"
 
TABLE:  "DATABASE FORMAT TYPES"
   UnitsCurr=Yes   OverrideE=No
 
TABLE:  "FRAME AUTO MESH ASSIGNMENTS"
   Frame="Frame 1_0~3.8m"   AutoMesh=Yes   AtJoints=Yes   AtFrames=No   NumSegments=0   MaxLength=0   MaxDegrees=0
   Frame="Frame 11_38~42m"   AutoMesh=Yes   AtJoints=Yes   AtFrames=No   NumSegments=0   MaxLength=0   MaxDegrees=0
   Frame="Frame 2_3.8~7.6m"   AutoMesh=Yes   AtJoints=Yes   AtFrames=No   NumSegments=0   MaxLength=0   MaxDegrees=0
   Frame="Frame 5_15.2~19m"   AutoMesh=Yes   AtJoints=Yes   AtFrames=No   NumSegments=0   MaxLength=0   MaxDegrees=0
   Frame="Frame 6_19~22.8m"   AutoMesh=Yes   AtJoints=Yes   AtFrames=No   NumSegments=0   MaxLength=0   MaxDegrees=0
   Frame="Frame 10_34.2~38m"   AutoMesh=Yes   AtJoints=Yes   AtFrames=No   NumSegments=0   MaxLength=0   MaxDegrees=0
   Frame="Frame 3_7.6~11.4m"   AutoMesh=Yes   AtJoints=Yes   AtFrames=No   NumSegments=0   MaxLength=0   MaxDegrees=0
   Frame="Frame 4_11.4~15.2m"   AutoMesh=Yes   AtJoints=Yes   AtFrames=No   NumSegments=0   MaxLength=0   MaxDegrees=0
   Frame="Frame 7_22.8~26.6m"   AutoMesh=Yes   AtJoints=Yes   AtFrames=No   NumSegments=0   MaxLength=0   MaxDegrees=0
   Frame="Frame 8_26.6~30.4m"   AutoMesh=Yes   AtJoints=Yes   AtFrames=No   NumSegments=0   MaxLength=0   MaxDegrees=0
   Frame="Frame 9_30.4~34.2m"   AutoMesh=Yes   AtJoints=Yes   AtFrames=No   NumSegments=0   MaxLength=0   MaxDegrees=0
   Frame="Frame 12_42~47.796m"   AutoMesh=Yes   AtJoints=Yes   AtFrames=No   NumSegments=0   MaxLength=0   MaxDegrees=0
   Frame="Frame 21_108~238.3m"   AutoMesh=Yes   AtJoints=Yes   AtFrames=No   NumSegments=0   MaxLength=0   MaxDegrees=0
   Frame="Frame 20_88.368~108m"   AutoMesh=Yes   AtJoints=Yes   AtFrames=No   NumSegments=0   MaxLength=0   MaxDegrees=0
   Frame="Frame 16_65.184~70.98m"   AutoMesh=Yes   AtJoints=Yes   AtFrames=No   NumSegments=0   MaxLength=0   MaxDegrees=0
   Frame="Frame 17_70.98~76.776m"   AutoMesh=Yes   AtJoints=Yes   AtFrames=No   NumSegments=0   MaxLength=0   MaxDegrees=0
   Frame="Frame 13_47.796~53.592m"   AutoMesh=Yes   AtJoints=Yes   AtFrames=No   NumSegments=0   MaxLength=0   MaxDegrees=0
   Frame="Frame 14_53.592~59.388m"   AutoMesh=Yes   AtJoints=Yes   AtFrames=No   NumSegments=0   MaxLength=0   MaxDegrees=0
   Frame="Frame 15_59.388~65.184m"   AutoMesh=Yes   AtJoints=Yes   AtFrames=No   NumSegments=0   MaxLength=0   MaxDegrees=0
   Frame="Frame 18_76.776~82.572m"   AutoMesh=Yes   AtJoints=Yes   AtFrames=No   NumSegments=0   MaxLength=0   MaxDegrees=0
   Frame="Frame 19_82.572~88.368m"   AutoMesh=Yes   AtJoints=Yes   AtFrames=No   NumSegments=0   MaxLength=0   MaxDegrees=0
 
TABLE:  "FRAME DESIGN PROCEDURES"
   Frame="Frame 1_0~3.8m"   DesignProc="No Design"
   Frame="Frame 11_38~42m"   DesignProc="No Design"
   Frame="Frame 2_3.8~7.6m"   DesignProc="No Design"
   Frame="Frame 5_15.2~19m"   DesignProc="No Design"
   Frame="Frame 6_19~22.8m"   DesignProc="No Design"
   Frame="Frame 10_34.2~38m"   DesignProc="No Design"
   Frame="Frame 3_7.6~11.4m"   DesignProc="No Design"
   Frame="Frame 4_11.4~15.2m"   DesignProc="No Design"
   Frame="Frame 7_22.8~26.6m"   DesignProc="No Design"
   Frame="Frame 8_26.6~30.4m"   DesignProc="No Design"
   Frame="Frame 9_30.4~34.2m"   DesignProc="No Design"
   Frame="Frame 12_42~47.796m"   DesignProc="No Design"
   Frame="Frame 21_108~238.3m"   DesignProc="No Design"
   Frame="Frame 20_88.368~108m"   DesignProc="No Design"
   Frame="Frame 16_65.184~70.98m"   DesignProc="No Design"
   Frame="Frame 17_70.98~76.776m"   DesignProc="No Design"
   Frame="Frame 13_47.796~53.592m"   DesignProc="No Design"
   Frame="Frame 14_53.592~59.388m"   DesignProc="No Design"
   Frame="Frame 15_59.388~65.184m"   DesignProc="No Design"
   Frame="Frame 18_76.776~82.572m"   DesignProc="No Design"
   Frame="Frame 19_82.572~88.368m"   DesignProc="No Design"
 
TABLE:  "FRAME LOADS - DISTRIBUTED"
   Frame="Frame 11_38~42m"   LoadPat=SUPERDEAD   CoordSys=GLOBAL   Type=Force   Dir=Gravity   DistType=RelDist   RelDistA=0   RelDistB=1   AbsDistA=0   AbsDistB=4   FOverLA=134.73   FOverLB=134.73   GUID=831534c9-3192-4ba3-9e8f-390c5d127731
   Frame="Frame 11_38~42m"   LoadPat=WIND_X   CoordSys=GLOBAL   Type=Force   Dir=X   DistType=RelDist   RelDistA=0   RelDistB=1   AbsDistA=0   AbsDistB=4   FOverLA=49.34   FOverLB=49.34   GUID=c386bdce-3c92-4809-9e99-2f9aabe41194
   Frame="Frame 11_38~42m"   LoadPat=SUPERDEAD   CoordSys=GLOBAL   Type=Force   Dir=Z   DistType=RelDist   RelDistA=0   RelDistB=1   AbsDistA=0   AbsDistB=4   FOverLA=-70.7   FOverLB=-70.7   GUID=02d7732b-33be-4dfe-a344-035d8caf0e21
   Frame="Frame 20_88.368~108m"   LoadPat=SUPERDEAD   CoordSys=GLOBAL   Type=Force   Dir=Gravity   DistType=RelDist   RelDistA=0   RelDistB=1   AbsDistA=0   AbsDistB=19.632   FOverLA=134.73   FOverLB=134.73   GUID=6393b947-2a16-470f-93d0-37947e0c1ffb
   Frame="Frame 20_88.368~108m"   LoadPat=WIND_X   CoordSys=GLOBAL   Type=Force   Dir=X   DistType=RelDist   RelDistA=0   RelDistB=1   AbsDistA=0   AbsDistB=19.632   FOverLA=48.4   FOverLB=48.4   GUID=ff5237ee-7450-480a-b6f1-d60e599afc63
   Frame="Frame 21_108~238.3m"   LoadPat=SUPERDEAD   CoordSys=GLOBAL   Type=Force   Dir=Gravity   DistType=RelDist   RelDistA=0   RelDistB=1   AbsDistA=0   AbsDistB=130.3   FOverLA=134.73   FOverLB=134.73   GUID=7c3508a4-87c1-44a2-809a-8ff13b3d3ed7
   Frame="Frame 21_108~238.3m"   LoadPat=WIND_X   CoordSys=GLOBAL   Type=Force   Dir=X   DistType=RelDist   RelDistA=0   RelDistB=0.25   AbsDistA=0   AbsDistB=32.575   FOverLA=47.5592   FOverLB=50.70625   GUID=715907a6-2941-47cf-8905-1a676d164dfd
   Frame="Frame 21_108~238.3m"   LoadPat=WIND_X   CoordSys=GLOBAL   Type=Force   Dir=X   DistType=RelDist   RelDistA=0.25   RelDistB=0.75   AbsDistA=32.575   AbsDistB=97.725   FOverLA=50.70625   FOverLB=57.00075   GUID=f88d4373-db2f-4bf5-b9e9-c0c0d42fa58a
   Frame="Frame 21_108~238.3m"   LoadPat=WIND_X   CoordSys=GLOBAL   Type=Force   Dir=X   DistType=RelDist   RelDistA=0.75   RelDistB=1   AbsDistA=97.725   AbsDistB=130.3   FOverLA=57.00075   FOverLB=60.1484   GUID=aa78fa6b-5cd7-41d6-921c-286fa01c5e61
   Frame="Frame 1_0~3.8m"   LoadPat=WIND_X   CoordSys=GLOBAL   Type=Force   Dir=X   DistType=RelDist   RelDistA=0   RelDistB=1   AbsDistA=0   AbsDistB=3.8   FOverLA=30.79   FOverLB=30.79   GUID=26099edd-50b6-490e-8fb5-b1fcc3cf4182
   Frame="Frame 1_0~3.8m"   LoadPat=SUPERDEAD   CoordSys=GLOBAL   Type=Force   Dir=Z   DistType=RelDist   RelDistA=0   RelDistB=1   AbsDistA=0   AbsDistB=3.8   FOverLA=-70.7   FOverLB=-70.7   GUID=b15cf56d-5c12-4bc1-b480-1df7bec40ddc
   Frame="Frame 1_0~3.8m"   LoadPat=SUPERDEAD   CoordSys=GLOBAL   Type=Force   Dir=Z   DistType=RelDist   RelDistA=0   RelDistB=1   AbsDistA=0   AbsDistB=3.8   FOverLA=-134.73   FOverLB=-134.73   GUID=bc901b57-1603-4298-be01-bd3cf42d4a48
   Frame="Frame 2_3.8~7.6m"   LoadPat=SUPERDEAD   CoordSys=GLOBAL   Type=Force   Dir=Gravity   DistType=RelDist   RelDistA=0   RelDistB=1   AbsDistA=0   AbsDistB=3.8   FOverLA=134.73   FOverLB=134.73   GUID=ce0aac2c-6fe4-4099-947c-1c088c463e11
   Frame="Frame 2_3.8~7.6m"   LoadPat=WIND_X   CoordSys=GLOBAL   Type=Force   Dir=X   DistType=RelDist   RelDistA=0   RelDistB=1   AbsDistA=0   AbsDistB=3.8   FOverLA=30.2   FOverLB=30.2   GUID=9e91072e-1a14-4ffb-ae1e-69920afed5d8
   Frame="Frame 2_3.8~7.6m"   LoadPat=SUPERDEAD   CoordSys=GLOBAL   Type=Force   Dir=Z   DistType=RelDist   RelDistA=0   RelDistB=1   AbsDistA=0   AbsDistB=3.8   FOverLA=-70.7   FOverLB=-70.7   GUID=936bab7c-dc9f-4d96-a8a6-2ded2706fadb
   Frame="Frame 3_7.6~11.4m"   LoadPat=SUPERDEAD   CoordSys=GLOBAL   Type=Force   Dir=Gravity   DistType=RelDist   RelDistA=0   RelDistB=1   AbsDistA=0   AbsDistB=3.8   FOverLA=134.73   FOverLB=134.73   GUID=c100f9b4-08ba-4d12-87c7-1510a65518d3
   Frame="Frame 3_7.6~11.4m"   LoadPat=WIND_X   CoordSys=GLOBAL   Type=Force   Dir=X   DistType=RelDist   RelDistA=0   RelDistB=1   AbsDistA=0   AbsDistB=3.8   FOverLA=36.9   FOverLB=36.9   GUID=00362f1f-31ce-4426-9c8a-75f7d47e62a6
   Frame="Frame 3_7.6~11.4m"   LoadPat=SUPERDEAD   CoordSys=GLOBAL   Type=Force   Dir=Z   DistType=RelDist   RelDistA=0   RelDistB=1   AbsDistA=0   AbsDistB=3.8   FOverLA=-70.7   FOverLB=-70.7   GUID=57cfde42-fcfd-45c4-a7d3-7bb212e87360
   Frame="Frame 4_11.4~15.2m"   LoadPat=SUPERDEAD   CoordSys=GLOBAL   Type=Force   Dir=Gravity   DistType=RelDist   RelDistA=0   RelDistB=1   AbsDistA=0   AbsDistB=3.8   FOverLA=134.73   FOverLB=134.73   GUID=3581f461-6242-42ca-b057-f259c3c80c83
   Frame="Frame 4_11.4~15.2m"   LoadPat=WIND_X   CoordSys=GLOBAL   Type=Force   Dir=X   DistType=RelDist   RelDistA=0   RelDistB=1   AbsDistA=0   AbsDistB=3.8   FOverLA=48.39   FOverLB=48.39   GUID=9750601c-4eba-4ce1-93b7-f984806c1fbc
   Frame="Frame 4_11.4~15.2m"   LoadPat=SUPERDEAD   CoordSys=GLOBAL   Type=Force   Dir=Z   DistType=RelDist   RelDistA=0   RelDistB=1   AbsDistA=0   AbsDistB=3.8   FOverLA=-70.7   FOverLB=-70.7   GUID=38d1e256-d8d2-40ed-84c1-607c9093c4b0
   Frame="Frame 5_15.2~19m"   LoadPat=SUPERDEAD   CoordSys=GLOBAL   Type=Force   Dir=Gravity   DistType=RelDist   RelDistA=0   RelDistB=1   AbsDistA=0   AbsDistB=3.8   FOverLA=134.73   FOverLB=134.73   GUID=9a51206c-8d57-469e-a11c-05dee17acf01
   Frame="Frame 5_15.2~19m"   LoadPat=WIND_X   CoordSys=GLOBAL   Type=Force   Dir=X   DistType=RelDist   RelDistA=0   RelDistB=1   AbsDistA=0   AbsDistB=3.8   FOverLA=47.39   FOverLB=47.39   GUID=70785de1-188c-45a6-9435-ee3c510e16d4
   Frame="Frame 5_15.2~19m"   LoadPat=SUPERDEAD   CoordSys=GLOBAL   Type=Force   Dir=Z   DistType=RelDist   RelDistA=0   RelDistB=1   AbsDistA=0   AbsDistB=3.8   FOverLA=-70.7   FOverLB=-70.7   GUID=e8b372dd-eeac-49fa-ad81-c32905ea824a
   Frame="Frame 6_19~22.8m"   LoadPat=SUPERDEAD   CoordSys=GLOBAL   Type=Force   Dir=Gravity   DistType=RelDist   RelDistA=0   RelDistB=1   AbsDistA=0   AbsDistB=3.8   FOverLA=134.73   FOverLB=134.73   GUID=2a40a778-3d5c-4409-9b44-8fff912a2d2b
   Frame="Frame 6_19~22.8m"   LoadPat=WIND_X   CoordSys=GLOBAL   Type=Force   Dir=X   DistType=RelDist   RelDistA=0   RelDistB=1   AbsDistA=0   AbsDistB=3.8   FOverLA=46.41   FOverLB=46.41   GUID=429bad84-e353-43ce-a0e5-b9719f1e20d9
   Frame="Frame 6_19~22.8m"   LoadPat=SUPERDEAD   CoordSys=GLOBAL   Type=Force   Dir=Z   DistType=RelDist   RelDistA=0   RelDistB=1   AbsDistA=0   AbsDistB=3.8   FOverLA=-70.7   FOverLB=-70.7   GUID=8821863d-f779-47a9-bd5b-4d6ae30277f0
   Frame="Frame 7_22.8~26.6m"   LoadPat=SUPERDEAD   CoordSys=GLOBAL   Type=Force   Dir=Gravity   DistType=RelDist   RelDistA=0   RelDistB=1   AbsDistA=0   AbsDistB=3.8   FOverLA=134.73   FOverLB=134.73   GUID=8351503a-4c08-4833-8b19-4e4808fa33cd
   Frame="Frame 7_22.8~26.6m"   LoadPat=WIND_X   CoordSys=GLOBAL   Type=Force   Dir=X   DistType=RelDist   RelDistA=0   RelDistB=1   AbsDistA=0   AbsDistB=3.8   FOverLA=49.25   FOverLB=49.25   GUID=77c1433a-643e-4a81-93e8-660ebac8891a
   Frame="Frame 7_22.8~26.6m"   LoadPat=SUPERDEAD   CoordSys=GLOBAL   Type=Force   Dir=Z   DistType=RelDist   RelDistA=0   RelDistB=1   AbsDistA=0   AbsDistB=3.8   FOverLA=-70.7   FOverLB=-70.7   GUID=085e6c74-2418-408b-a63c-6b4449a24614
   Frame="Frame 8_26.6~30.4m"   LoadPat=SUPERDEAD   CoordSys=GLOBAL   Type=Force   Dir=Gravity   DistType=RelDist   RelDistA=0   RelDistB=1   AbsDistA=0   AbsDistB=3.8   FOverLA=134.73   FOverLB=134.73   GUID=633608b3-e6ff-4afa-8ca3-fd355f5301c5
   Frame="Frame 8_26.6~30.4m"   LoadPat=WIND_X   CoordSys=GLOBAL   Type=Force   Dir=X   DistType=RelDist   RelDistA=0   RelDistB=1   AbsDistA=0   AbsDistB=3.8   FOverLA=53.34   FOverLB=53.34   GUID=17551290-91d5-429d-98f8-e6c5ca73d358
   Frame="Frame 8_26.6~30.4m"   LoadPat=SUPERDEAD   CoordSys=GLOBAL   Type=Force   Dir=Z   DistType=RelDist   RelDistA=0   RelDistB=1   AbsDistA=0   AbsDistB=3.8   FOverLA=-70.7   FOverLB=-70.7   GUID=e3c108d1-813e-4afb-b733-6c2f3f2fa5ba
   Frame="Frame 9_30.4~34.2m"   LoadPat=SUPERDEAD   CoordSys=GLOBAL   Type=Force   Dir=Gravity   DistType=RelDist   RelDistA=0   RelDistB=1   AbsDistA=0   AbsDistB=3.8   FOverLA=134.73   FOverLB=134.73   GUID=d17253f6-bde8-4fa8-9a73-ee367279c073
   Frame="Frame 9_30.4~34.2m"   LoadPat=WIND_X   CoordSys=GLOBAL   Type=Force   Dir=X   DistType=RelDist   RelDistA=0   RelDistB=1   AbsDistA=0   AbsDistB=3.8   FOverLA=52.17   FOverLB=52.17   GUID=9657a43d-6576-4a92-8c07-1644f30fc014
   Frame="Frame 9_30.4~34.2m"   LoadPat=SUPERDEAD   CoordSys=GLOBAL   Type=Force   Dir=Z   DistType=RelDist   RelDistA=0   RelDistB=1   AbsDistA=0   AbsDistB=3.8   FOverLA=-70.7   FOverLB=-70.7   GUID=5ba39641-f9d0-4196-a0e2-6bc1a488bc6a
   Frame="Frame 10_34.2~38m"   LoadPat=SUPERDEAD   CoordSys=GLOBAL   Type=Force   Dir=Gravity   DistType=RelDist   RelDistA=0   RelDistB=1   AbsDistA=0   AbsDistB=3.8   FOverLA=134.73   FOverLB=134.73   GUID=0cae5891-71f1-448a-b3dd-d955859f3ee6
   Frame="Frame 10_34.2~38m"   LoadPat=WIND_X   CoordSys=GLOBAL   Type=Force   Dir=X   DistType=RelDist   RelDistA=0   RelDistB=1   AbsDistA=0   AbsDistB=3.8   FOverLA=50.93   FOverLB=50.93   GUID=e3e4f547-9ce7-4816-84bc-edce5267bdd0
   Frame="Frame 10_34.2~38m"   LoadPat=SUPERDEAD   CoordSys=GLOBAL   Type=Force   Dir=Z   DistType=RelDist   RelDistA=0   RelDistB=1   AbsDistA=0   AbsDistB=3.8   FOverLA=-70.7   FOverLB=-70.7   GUID=0d6a1669-f70f-4c87-a271-0eac20617e59
   Frame="Frame 12_42~47.796m"   LoadPat=SUPERDEAD   CoordSys=GLOBAL   Type=Force   Dir=Gravity   DistType=RelDist   RelDistA=0   RelDistB=1   AbsDistA=0   AbsDistB=5.796   FOverLA=134.73   FOverLB=134.73   GUID=e2b74a43-18ed-477a-bdd3-9c50d8822730
   Frame="Frame 12_42~47.796m"   LoadPat=WIND_X   CoordSys=GLOBAL   Type=Force   Dir=X   DistType=RelDist   RelDistA=0   RelDistB=1   AbsDistA=0   AbsDistB=5.796   FOverLA=49.34   FOverLB=49.34   GUID=2dd9e1f3-b847-41db-b592-05a1a3a5f316
   Frame="Frame 12_42~47.796m"   LoadPat=SUPERDEAD   CoordSys=GLOBAL   Type=Force   Dir=Z   DistType=RelDist   RelDistA=0   RelDistB=1   AbsDistA=0   AbsDistB=5.796   FOverLA=-70.7   FOverLB=-70.7   GUID=8f1d1faf-d4fb-448c-8d1b-ab53e71472b6
   Frame="Frame 13_47.796~53.592m"   LoadPat=SUPERDEAD   CoordSys=GLOBAL   Type=Force   Dir=Gravity   DistType=RelDist   RelDistA=0   RelDistB=1   AbsDistA=0   AbsDistB=5.796   FOverLA=134.73   FOverLB=134.73   GUID=0f49efc9-3fcb-4dc9-9c5f-d97b2fe1b8c9
   Frame="Frame 13_47.796~53.592m"   LoadPat=WIND_X   CoordSys=GLOBAL   Type=Force   Dir=X   DistType=RelDist   RelDistA=0   RelDistB=1   AbsDistA=0   AbsDistB=5.796   FOverLA=47.82   FOverLB=47.82   GUID=1298768a-a46d-477a-93c0-9e67bd972852
   Frame="Frame 14_53.592~59.388m"   LoadPat=SUPERDEAD   CoordSys=GLOBAL   Type=Force   Dir=Gravity   DistType=RelDist   RelDistA=0   RelDistB=1   AbsDistA=0   AbsDistB=5.796   FOverLA=134.73   FOverLB=134.73   GUID=1ed59650-d25a-4279-922d-a74467a30c39
   Frame="Frame 14_53.592~59.388m"   LoadPat=WIND_X   CoordSys=GLOBAL   Type=Force   Dir=X   DistType=RelDist   RelDistA=0   RelDistB=1   AbsDistA=0   AbsDistB=5.796   FOverLA=46.64   FOverLB=46.64   GUID=e1695bcd-e686-4cc4-9f91-1ae9760be098
   Frame="Frame 15_59.388~65.184m"   LoadPat=SUPERDEAD   CoordSys=GLOBAL   Type=Force   Dir=Gravity   DistType=RelDist   RelDistA=0   RelDistB=1   AbsDistA=0   AbsDistB=5.796   FOverLA=134.73   FOverLB=134.73   GUID=701edea0-b8cc-47fc-877e-d035fc985c57
   Frame="Frame 15_59.388~65.184m"   LoadPat=WIND_X   CoordSys=GLOBAL   Type=Force   Dir=X   DistType=RelDist   RelDistA=0   RelDistB=1   AbsDistA=0   AbsDistB=5.796   FOverLA=52.22   FOverLB=52.22   GUID=067f6017-322c-4771-92ca-6d7c2c2ba14c
   Frame="Frame 16_65.184~70.98m"   LoadPat=SUPERDEAD   CoordSys=GLOBAL   Type=Force   Dir=Gravity   DistType=RelDist   RelDistA=0   RelDistB=1   AbsDistA=0   AbsDistB=5.79599999999999   FOverLA=134.73   FOverLB=134.73   GUID=068a00e2-3aaf-4dec-aa58-75d8e286417c
   Frame="Frame 16_65.184~70.98m"   LoadPat=WIND_X   CoordSys=GLOBAL   Type=Force   Dir=X   DistType=RelDist   RelDistA=0   RelDistB=1   AbsDistA=0   AbsDistB=5.79599999999999   FOverLA=51.66   FOverLB=51.66   GUID=ce8cbdb5-b80a-43b2-931e-03fc96a67588
   Frame="Frame 17_70.98~76.776m"   LoadPat=SUPERDEAD   CoordSys=GLOBAL   Type=Force   Dir=Gravity   DistType=RelDist   RelDistA=0   RelDistB=1   AbsDistA=0   AbsDistB=5.79600000000001   FOverLA=134.73   FOverLB=134.73   GUID=7a5f0375-6798-44ca-8c8a-48afebb023ee
   Frame="Frame 17_70.98~76.776m"   LoadPat=WIND_X   CoordSys=GLOBAL   Type=Force   Dir=X   DistType=RelDist   RelDistA=0   RelDistB=1   AbsDistA=0   AbsDistB=5.79600000000001   FOverLA=50.28   FOverLB=50.28   GUID=07e825f6-f7f7-478c-ae8a-93b63bc4a5f9
   Frame="Frame 18_76.776~82.572m"   LoadPat=SUPERDEAD   CoordSys=GLOBAL   Type=Force   Dir=Gravity   DistType=RelDist   RelDistA=0   RelDistB=1   AbsDistA=0   AbsDistB=5.79600000000001   FOverLA=134.73   FOverLB=134.73   GUID=714f8130-e85f-4a07-9296-4837df753a9f
   Frame="Frame 18_76.776~82.572m"   LoadPat=WIND_X   CoordSys=GLOBAL   Type=Force   Dir=X   DistType=RelDist   RelDistA=0   RelDistB=1   AbsDistA=0   AbsDistB=5.79600000000001   FOverLA=48.91   FOverLB=48.91   GUID=83dba506-ef4b-4af7-b58c-e75784b2e520
   Frame="Frame 19_82.572~88.368m"   LoadPat=SUPERDEAD   CoordSys=GLOBAL   Type=Force   Dir=Gravity   DistType=RelDist   RelDistA=0   RelDistB=1   AbsDistA=0   AbsDistB=5.79599999999999   FOverLA=134.73   FOverLB=134.73   GUID=81bcc20b-0113-4295-b266-55ea4f8d2cf4
   Frame="Frame 19_82.572~88.368m"   LoadPat=WIND_X   CoordSys=GLOBAL   Type=Force   Dir=X   DistType=RelDist   RelDistA=0   RelDistB=1   AbsDistA=0   AbsDistB=5.79599999999999   FOverLA=47.52   FOverLB=47.52   GUID=bf36d536-59bb-462b-bae8-2069d4ef907c
 
TABLE:  "FRAME LOAD TRANSFER OPTIONS"
   Frame="Frame 1_0~3.8m"   Transfer=Yes
   Frame="Frame 11_38~42m"   Transfer=Yes
   Frame="Frame 2_3.8~7.6m"   Transfer=Yes
   Frame="Frame 5_15.2~19m"   Transfer=Yes
   Frame="Frame 6_19~22.8m"   Transfer=Yes
   Frame="Frame 10_34.2~38m"   Transfer=Yes
   Frame="Frame 3_7.6~11.4m"   Transfer=Yes
   Frame="Frame 4_11.4~15.2m"   Transfer=Yes
   Frame="Frame 7_22.8~26.6m"   Transfer=Yes
   Frame="Frame 8_26.6~30.4m"   Transfer=Yes
   Frame="Frame 9_30.4~34.2m"   Transfer=Yes
   Frame="Frame 12_42~47.796m"   Transfer=Yes
   Frame="Frame 21_108~238.3m"   Transfer=Yes
   Frame="Frame 20_88.368~108m"   Transfer=Yes
   Frame="Frame 16_65.184~70.98m"   Transfer=Yes
   Frame="Frame 17_70.98~76.776m"   Transfer=Yes
   Frame="Frame 13_47.796~53.592m"   Transfer=Yes
   Frame="Frame 14_53.592~59.388m"   Transfer=Yes
   Frame="Frame 15_59.388~65.184m"   Transfer=Yes
   Frame="Frame 18_76.776~82.572m"   Transfer=Yes
   Frame="Frame 19_82.572~88.368m"   Transfer=Yes
 
TABLE:  "FRAME OUTPUT STATION ASSIGNMENTS"
   Frame="Frame 1_0~3.8m"   StationType=MinNumSta   MinNumSta=3   AddAtElmInt=Yes   AddAtPtLoad=Yes
   Frame="Frame 11_38~42m"   StationType=MinNumSta   MinNumSta=3   AddAtElmInt=Yes   AddAtPtLoad=Yes
   Frame="Frame 2_3.8~7.6m"   StationType=MinNumSta   MinNumSta=3   AddAtElmInt=Yes   AddAtPtLoad=Yes
   Frame="Frame 5_15.2~19m"   StationType=MinNumSta   MinNumSta=3   AddAtElmInt=Yes   AddAtPtLoad=Yes
   Frame="Frame 6_19~22.8m"   StationType=MinNumSta   MinNumSta=3   AddAtElmInt=Yes   AddAtPtLoad=Yes
   Frame="Frame 10_34.2~38m"   StationType=MinNumSta   MinNumSta=3   AddAtElmInt=Yes   AddAtPtLoad=Yes
   Frame="Frame 3_7.6~11.4m"   StationType=MinNumSta   MinNumSta=3   AddAtElmInt=Yes   AddAtPtLoad=Yes
   Frame="Frame 4_11.4~15.2m"   StationType=MinNumSta   MinNumSta=3   AddAtElmInt=Yes   AddAtPtLoad=Yes
   Frame="Frame 7_22.8~26.6m"   StationType=MinNumSta   MinNumSta=3   AddAtElmInt=Yes   AddAtPtLoad=Yes
   Frame="Frame 8_26.6~30.4m"   StationType=MinNumSta   MinNumSta=3   AddAtElmInt=Yes   AddAtPtLoad=Yes
   Frame="Frame 9_30.4~34.2m"   StationType=MinNumSta   MinNumSta=3   AddAtElmInt=Yes   AddAtPtLoad=Yes
   Frame="Frame 12_42~47.796m"   StationType=MinNumSta   MinNumSta=3   AddAtElmInt=Yes   AddAtPtLoad=Yes
   Frame="Frame 21_108~238.3m"   StationType=MinNumSta   MinNumSta=3   AddAtElmInt=Yes   AddAtPtLoad=Yes
   Frame="Frame 20_88.368~108m"   StationType=MinNumSta   MinNumSta=3   AddAtElmInt=Yes   AddAtPtLoad=Yes
   Frame="Frame 16_65.184~70.98m"   StationType=MinNumSta   MinNumSta=3   AddAtElmInt=Yes   AddAtPtLoad=Yes
   Frame="Frame 17_70.98~76.776m"   StationType=MinNumSta   MinNumSta=3   AddAtElmInt=Yes   AddAtPtLoad=Yes
   Frame="Frame 13_47.796~53.592m"   StationType=MinNumSta   MinNumSta=3   AddAtElmInt=Yes   AddAtPtLoad=Yes
   Frame="Frame 14_53.592~59.388m"   StationType=MinNumSta   MinNumSta=3   AddAtElmInt=Yes   AddAtPtLoad=Yes
   Frame="Frame 15_59.388~65.184m"   StationType=MinNumSta   MinNumSta=3   AddAtElmInt=Yes   AddAtPtLoad=Yes
   Frame="Frame 18_76.776~82.572m"   StationType=MinNumSta   MinNumSta=3   AddAtElmInt=Yes   AddAtPtLoad=Yes
   Frame="Frame 19_82.572~88.368m"   StationType=MinNumSta   MinNumSta=3   AddAtElmInt=Yes   AddAtPtLoad=Yes
 
TABLE:  "FRAME SECTION ASSIGNMENTS"
   Frame="Frame 1_0~3.8m"   AutoSelect=N.A.   AnalSect=S1-0   MatProp=Default
   Frame="Frame 11_38~42m"   AutoSelect=N.A.   AnalSect=S2-38   MatProp=Default
   Frame="Frame 2_3.8~7.6m"   AutoSelect=N.A.   AnalSect=S1-0-01   MatProp=Default
   Frame="Frame 5_15.2~19m"   AutoSelect=N.A.   AnalSect=S1-0-04   MatProp=Default
   Frame="Frame 6_19~22.8m"   AutoSelect=N.A.   AnalSect=S1-0-05   MatProp=Default
   Frame="Frame 10_34.2~38m"   AutoSelect=N.A.   AnalSect=S1-0-09   MatProp=Default
   Frame="Frame 3_7.6~11.4m"   AutoSelect=N.A.   AnalSect=S1-0-02   MatProp=Default
   Frame="Frame 4_11.4~15.2m"   AutoSelect=N.A.   AnalSect=S1-0-03   MatProp=Default
   Frame="Frame 7_22.8~26.6m"   AutoSelect=N.A.   AnalSect=S1-0-06   MatProp=Default
   Frame="Frame 8_26.6~30.4m"   AutoSelect=N.A.   AnalSect=S1-0-07   MatProp=Default
   Frame="Frame 9_30.4~34.2m"   AutoSelect=N.A.   AnalSect=S1-0-08   MatProp=Default
   Frame="Frame 12_42~47.796m"   AutoSelect=N.A.   AnalSect=S3-42   MatProp=Default
   Frame="Frame 21_108~238.3m"   AutoSelect=N.A.   AnalSect="S5-108 to top"   MatProp=Default
   Frame="Frame 20_88.368~108m"   AutoSelect=N.A.   AnalSect=S4-88.368   MatProp=Default
   Frame="Frame 16_65.184~70.98m"   AutoSelect=N.A.   AnalSect=S3-42-04   MatProp=Default
   Frame="Frame 17_70.98~76.776m"   AutoSelect=N.A.   AnalSect=S3-42-05   MatProp=Default
   Frame="Frame 13_47.796~53.592m"   AutoSelect=N.A.   AnalSect=S3-42-01   MatProp=Default
   Frame="Frame 14_53.592~59.388m"   AutoSelect=N.A.   AnalSect=S3-42-02   MatProp=Default
   Frame="Frame 15_59.388~65.184m"   AutoSelect=N.A.   AnalSect=S3-42-03   MatProp=Default
   Frame="Frame 18_76.776~82.572m"   AutoSelect=N.A.   AnalSect=S3-42-06   MatProp=Default
   Frame="Frame 19_82.572~88.368m"   AutoSelect=N.A.   AnalSect=S3-42-07   MatProp=Default
 
TABLE:  "FRAME SECTION PROPERTIES 01 - GENERAL"
   SectionName=S1-0   Material=CONC_C40_0.7E   Shape=Pipe   t3=37   tw=1.4   Area=156.576977854915   TorsConst=49686.5723827002   I33=24843.2861913501   I22=24843.2861913501   I23=0   AS2=78.3691639142074   AS3=78.3691639142074 _
        S33Top=1342.88033466757   S33Bot=1342.88033466757   S22Left=1342.88033466757   S22Right=1342.88033466757   Z33=1775.21866666667   Z22=1775.21866666667   R33=12.5962295946049   R22=12.5962295946049   CGOffset3=0   CGOffset2=0 _
        EccV2=0   EccV3=0   Cw=0   Color=Cyan   FromFile=No   AMod=1   A2Mod=1   A3Mod=1   JMod=1   I2Mod=1   I3Mod=1   MMod=1   WMod=1   GUID=e8276fa5-10b9-4fd0-8a50-c11fc673d30c   Notes="Added 4/28/2026 3:40:28 PM"
   SectionName=S1-0-01   Material=CONC_C40_0.7E   Shape=Pipe   t3=36.65   tw=1.4   Area=155.037597454656   TorsConst=48236.9445945656   I33=24118.4722972828   I22=24118.4722972828   I23=0   AS2=77.6002739045429   AS3=77.6002739045429 _
        S33Top=1316.15128498133   S33Bot=1316.15128498133   S22Left=1316.15128498133   S22Right=1316.15128498133   Z33=1740.50216666667   Z22=1740.50216666667   R33=12.4725824310766   R22=12.4725824310766   CGOffset3=0   CGOffset2=0 _
        EccV2=0   EccV3=0   Cw=0   Color=Blue   FromFile=No   AMod=1   A2Mod=1   A3Mod=1   JMod=1   I2Mod=1   I3Mod=1   MMod=1   WMod=1   GUID=95b584b2-2cc5-4010-8828-b980c6b477a8   Notes="Added 4/28/2026 4:09:39 PM"
   SectionName=S1-0-02   Material=CONC_C40_0.7E   Shape=Pipe   t3=35.95   tw=1.4   Area=151.958836654138   TorsConst=45422.8706327446   I33=22711.4353163723   I22=22711.4353163723   I23=0   AS2=76.062542443442   AS3=76.062542443442 _
        S33Top=1263.50126933921   S33Bot=1263.50126933921   S22Left=1263.50126933921   S22Right=1263.50126933921   Z33=1672.09816666667   Z22=1672.09816666667   R33=12.2252939637458   R22=12.2252939637458   CGOffset3=0   CGOffset2=0 _
        EccV2=0   EccV3=0   Cw=0   Color=Cyan   FromFile=No   AMod=1   A2Mod=1   A3Mod=1   JMod=1   I2Mod=1   I3Mod=1   MMod=1   WMod=1   GUID=74029799-b485-44c7-8b76-bed5ed925bb0   Notes="Added 4/28/2026 4:11:00 PM"
   SectionName=S1-0-03   Material=CONC_C40_0.7E   Shape=Pipe   t3=35.25   tw=1.4   Area=148.88007585362   TorsConst=42720.4864158644   I33=21360.2432079322   I22=21360.2432079322   I23=0   AS2=74.5248790664105   AS3=74.5248790664105 _
        S33Top=1211.92869264864   S33Bot=1211.92869264864   S22Left=1211.92869264864   S22Right=1211.92869264864   Z33=1605.06616666666   Z22=1605.06616666666   R33=11.978013712632   R22=11.978013712632   CGOffset3=0   CGOffset2=0   EccV2=0 _
        EccV3=0   Cw=0   Color=Magenta   FromFile=No   AMod=1   A2Mod=1   A3Mod=1   JMod=1   I2Mod=1   I3Mod=1   MMod=1   WMod=1   GUID=bee3beb1-b115-4f0e-9ec3-e736fc05c1e0   Notes="Added 4/28/2026 4:11:38 PM"
   SectionName=S1-0-04   Material=CONC_C40_0.7E   Shape=Pipe   t3=34.55   tw=1.4   Area=145.801315053102   TorsConst=40127.5290547367   I33=20063.7645273684   I22=20063.7645273684   I23=0   AS2=72.9872880765145   AS3=72.9872880765145 _
        S33Top=1161.43354717038   S33Bot=1161.43354717038   S22Left=1161.43354717038   S22Right=1161.43354717038   Z33=1539.40616666667   Z22=1539.40616666667   R33=11.7307421973207   R22=11.7307421973207   CGOffset3=0   CGOffset2=0 _
        EccV2=0   EccV3=0   Cw=0   Color=Gray8Dark   FromFile=No   AMod=1   A2Mod=1   A3Mod=1   JMod=1   I2Mod=1   I3Mod=1   MMod=1   WMod=1   GUID=2c037a11-38ce-4af6-88be-aeba38e907ce   Notes="Added 4/28/2026 4:12:15 PM"
   SectionName=S1-0-05   Material=CONC_C40_0.7E   Shape=Pipe   t3=33.85   tw=1.4   Area=142.722554252584   TorsConst=37641.735660173   I33=18820.8678300865   I22=18820.8678300865   I23=0   AS2=71.4497741470097   AS3=71.4497741470097 _
        S33Top=1112.01582452505   S33Bot=1112.01582452505   S22Left=1112.01582452505   S22Right=1112.01582452505   Z33=1475.11816666667   Z22=1475.11816666667   R33=11.4834799821309   R22=11.4834799821309   CGOffset3=0   CGOffset2=0 _
        EccV2=0   EccV3=0   Cw=0   Color=Green   FromFile=No   AMod=1   A2Mod=1   A3Mod=1   JMod=1   I2Mod=1   I3Mod=1   MMod=1   WMod=1   GUID=1a5f7ba5-bee8-46cd-82a1-45b780bc4c68   Notes="Added 4/28/2026 4:12:41 PM"
   SectionName=S1-0-06   Material=CONC_C40_0.7E   Shape=Pipe   t3=33.15   tw=1.4   Area=139.643793452066   TorsConst=35260.8433429849   I33=17630.4216714925   I22=17630.4216714925   I23=0   AS2=69.9123423619997   AS3=69.9123423619997 _
        S33Top=1063.67551562549   S33Bot=1063.67551562549   S22Left=1063.67551562549   S22Right=1063.67551562549   Z33=1412.20216666667   Z22=1412.20216666667   R33=11.2362276810325   R22=11.2362276810325   CGOffset3=0   CGOffset2=0 _
        EccV2=0   EccV3=0   Cw=0   Color=Red   FromFile=No   AMod=1   A2Mod=1   A3Mod=1   JMod=1   I2Mod=1   I3Mod=1   MMod=1   WMod=1   GUID=a0daf9cd-f330-4243-a8b8-3ccacd8b83fd   Notes="Added 4/28/2026 4:13:14 PM"
   SectionName=S1-0-07   Material=CONC_C40_0.7E   Shape=Pipe   t3=32.45   tw=1.4   Area=136.565032651548   TorsConst=32982.5892139841   I33=16491.2946069921   I22=16491.2946069921   I23=0   AS2=68.3749982625672   AS3=68.3749982625672 _
        S33Top=1016.41261060044   S33Bot=1016.41261060044   S22Left=1016.41261060044   S22Right=1016.41261060044   Z33=1350.65816666667   Z22=1350.65816666667   R33=10.988985963227   R22=10.988985963227   CGOffset3=0   CGOffset2=0   EccV2=0 _
        EccV3=0   Cw=0   Color=Yellow   FromFile=No   AMod=1   A2Mod=1   A3Mod=1   JMod=1   I2Mod=1   I3Mod=1   MMod=1   WMod=1   GUID=0f827487-91c4-47d5-9b50-f3684a50004c   Notes="Added 4/28/2026 4:13:46 PM"
   SectionName=S1-0-08   Material=CONC_C40_0.7E   Shape=Pipe   t3=31.75   tw=1.4   Area=133.48627185103   TorsConst=30804.7103839822   I33=15402.3551919911   I22=15402.3551919911   I23=0   AS2=66.8377478992608   AS3=66.8377478992608 _
        S33Top=970.2270987081   S33Bot=970.2270987081   S22Left=970.2270987081   S22Right=970.2270987081   Z33=1290.48616666667   Z22=1290.48616666667   R33=10.7417555594977   R22=10.7417555594977   CGOffset3=0   CGOffset2=0   EccV2=0 _
        EccV3=0   Cw=0   Color=Blue   FromFile=No   AMod=1   A2Mod=1   A3Mod=1   JMod=1   I2Mod=1   I3Mod=1   MMod=1   WMod=1   GUID=7b742285-5b36-4bde-9755-caed5279b302   Notes="Added 4/28/2026 4:14:20 PM"
   SectionName=S1-0-09   Material=CONC_C40_0.7E   Shape=Pipe   t3=30.35   tw=1.4   Area=127.328750249994   TorsConst=26741.0270642215   I33=13370.5135321107   I22=13370.5135321107   I23=0   AS2=63.7635554985028   AS3=63.7635554985028 _
        S33Top=881.08820639939   S33Bot=881.08820639939   S22Left=881.08820639939   S22Right=881.08820639939   Z33=1174.25816666667   Z22=1174.25816666667   R33=10.2473319698349   R22=10.2473319698349   CGOffset3=0   CGOffset2=0   EccV2=0 _
        EccV3=0   Cw=0   Color=Cyan   FromFile=No   AMod=1   A2Mod=1   A3Mod=1   JMod=1   I2Mod=1   I3Mod=1   MMod=1   WMod=1   GUID=fb0262f3-e259-4c7e-912f-07aca2d67b3c   Notes="Added 4/28/2026 4:14:53 PM"
   SectionName=S2-38   Material=CONC_C40_0.7E   Shape=Pipe   t3=30   tw=1.4   Area=125.789369849735   TorsConst=25784.3050317988   I33=12892.1525158994   I22=12892.1525158994   I23=0   AS2=62.9950771185389   AS3=62.9950771185389 _
        S33Top=859.476834393292   S33Bot=859.476834393292   S22Left=859.476834393292   S22Right=859.476834393292   Z33=1146.05866666667   Z22=1146.05866666667   R33=10.1237344888139   R22=10.1237344888139   CGOffset3=0   CGOffset2=0 _
        EccV2=0   EccV3=0   Cw=0   Color=Magenta   FromFile=No   AMod=1   A2Mod=1   A3Mod=1   JMod=1   I2Mod=1   I3Mod=1   MMod=1   WMod=1   GUID=dc194b2a-c278-47d7-9c0f-8b4509b6d664   Notes="Added 4/28/2026 3:42:01 PM"
   SectionName=S3-42   Material=CONC_C40_0.7E   Shape=Pipe   t3=29.515   tw=1.349   Area=119.367747120683   TorsConst=23728.6177907667   I33=11864.3088953833   I22=11864.3088953833   I23=0   AS2=59.7750761864351   AS3=59.7750761864351 _
        S33Top=803.951136397313   S33Bot=803.951136397313   S22Left=803.951136397313   S22Right=803.951136397313   Z33=1071.01178089367   Z22=1071.01178089367   R33=9.96959977255858   R22=9.96959977255858   CGOffset3=0   CGOffset2=0 _
        EccV2=0   EccV3=0   Cw=0   Color=Gray8Dark   FromFile=No   AMod=1   A2Mod=1   A3Mod=1   JMod=1   I2Mod=1   I3Mod=1   MMod=1   WMod=1   GUID=ee583d13-c9fc-47f0-a4b7-d86e211b7665   Notes="Added 4/28/2026 3:42:52 PM"
   SectionName=S3-42-01   Material=CONC_C40_0.7E   Shape=Pipe   t3=28.728   tw=1.265   Area=109.141112192604   TorsConst=20622.6659206964   I33=10311.3329603482   I22=10311.3329603482   I23=0   AS2=54.6476899762992   AS3=54.6476899762992 _
        S33Top=717.859437506836   S33Bot=717.859437506836   S22Left=717.859437506836   S22Right=717.859437506836   Z33=954.758468326667   Z22=954.758468326667   R33=9.7199318027443   R22=9.7199318027443   CGOffset3=0   CGOffset2=0   EccV2=0 _
        EccV3=0   Cw=0   Color=Magenta   FromFile=No   AMod=1   A2Mod=1   A3Mod=1   JMod=1   I2Mod=1   I3Mod=1   MMod=1   WMod=1   GUID=62808354-b0e5-4b8f-a6f3-9d4309db0efe   Notes="Added 4/28/2026 4:25:45 PM"
   SectionName=S3-42-02   Material=CONC_C40_0.7E   Shape=Pipe   t3=27.88   tw=1.175   Area=98.5780723815857   TorsConst=17609.436045267   I33=8804.71802263352   I22=8804.71802263352   I23=0   AS2=49.3526087171766   AS3=49.3526087171766 _
        S33Top=631.615353130095   S33Bot=631.615353130095   S22Left=631.615353130095   S22Right=631.615353130095   Z33=838.500249166667   Z22=838.500249166667   R33=9.45077807643371   R22=9.45077807643371   CGOffset3=0   CGOffset2=0 _
        EccV2=0   EccV3=0   Cw=0   Color=Gray8Dark   FromFile=No   AMod=1   A2Mod=1   A3Mod=1   JMod=1   I2Mod=1   I3Mod=1   MMod=1   WMod=1   GUID=1dbf15f6-19c0-489e-a5da-cce07c1af687   Notes="Added 4/28/2026 4:26:50 PM"
   SectionName=S3-42-03   Material=CONC_C40_0.7E   Shape=Pipe   t3=27.032   tw=1.085   Area=88.4436714722233   TorsConst=14912.1344240169   I33=7456.06721200845   I22=7456.06721200845   I23=0   AS2=44.2733559457777   AS3=44.2733559457777 _
        S33Top=551.647470554043   S33Bot=551.647470554043   S22Left=551.647470554043   S22Right=551.647470554043   Z33=730.898550806666   Z22=730.898550806666   R33=9.18166674683851   R22=9.18166674683851   CGOffset3=0   CGOffset2=0 _
        EccV2=0   EccV3=0   Cw=0   Color=Green   FromFile=No   AMod=1   A2Mod=1   A3Mod=1   JMod=1   I2Mod=1   I3Mod=1   MMod=1   WMod=1   GUID=05e1b400-3a18-4a76-bc57-b8473877bf40   Notes="Added 4/28/2026 4:27:30 PM"
   SectionName=S3-42-04   Material=CONC_C40_0.7E   Shape=Pipe   t3=26.184   tw=0.995   Area=78.7379094645169   TorsConst=12509.0079388611   I33=6254.50396943055   I22=6254.50396943055   I23=0   AS2=39.4098865571517   AS3=39.4098865571517 _
        S33Top=477.734797542816   S33Bot=477.734797542816   S22Left=477.734797542816   S22Right=477.734797542816   Z33=631.641650686667   Z22=631.641650686667   R33=8.91260165439924   R22=8.91260165439924   CGOffset3=0   CGOffset2=0 _
        EccV2=0   EccV3=0   Cw=0   Color=Red   FromFile=No   AMod=1   A2Mod=1   A3Mod=1   JMod=1   I2Mod=1   I3Mod=1   MMod=1   WMod=1   GUID=e0da6726-a720-474b-9599-348b6e53cac8   Notes="Added 4/28/2026 4:28:26 PM"
   SectionName=S3-42-05   Material=CONC_C40_0.7E   Shape=Pipe   t3=25.336   tw=0.905   Area=69.4607863584662   TorsConst=10379.0527290856   I33=5189.52636454281   I22=5189.52636454281   I23=0   AS2=34.7621498167796   AS3=34.7621498167796 _
        S33Top=409.656328113578   S33Bot=409.656328113578   S22Left=409.656328113578   S22Right=409.656328113578   Z33=540.417826246666   Z22=540.417826246666   R33=8.64358711704811   R22=8.64358711704811   CGOffset3=0   CGOffset2=0 _
        EccV2=0   EccV3=0   Cw=0   Color=Yellow   FromFile=No   AMod=1   A2Mod=1   A3Mod=1   JMod=1   I2Mod=1   I3Mod=1   MMod=1   WMod=1   GUID=a828959c-2d4a-420b-8db2-6574475d896f   Notes="Added 4/28/2026 4:29:05 PM"
   SectionName=S3-42-06   Material=CONC_C40_0.7E   Shape=Pipe   t3=24.488   tw=0.815   Area=60.6123021540714   TorsConst=8502.01419134753   I33=4251.00709567377   I22=4251.00709567377   I23=0   AS2=30.3300884561446   AS3=30.3300884561446 _
        S33Top=347.191040156302   S33Bot=347.191040156302   S22Left=347.191040156302   S22Right=347.191040156302   Z33=456.915354926667   Z22=456.915354926667   R33=8.37462800666393   R22=8.37462800666393   CGOffset3=0   CGOffset2=0 _
        EccV2=0   EccV3=0   Cw=0   Color=Blue   FromFile=No   AMod=1   A2Mod=1   A3Mod=1   JMod=1   I2Mod=1   I3Mod=1   MMod=1   WMod=1   GUID=25e131a5-67ad-43b7-9413-6681d1cd24fc   Notes="Added 4/28/2026 4:29:45 PM"
   SectionName=S3-42-07   Material=CONC_C40_0.7E   Shape=Pipe   t3=21.944   tw=0.545   Area=36.6386829508216   TorsConst=4197.09143749253   I33=2098.54571874626   I22=2098.54571874626   I23=0   AS2=18.3272615770591   AS3=18.3272615770591 _
        S33Top=191.263736670276   S33Bot=191.263736670276   S22Left=191.263736670276   S22Right=191.263736670276   Z33=249.618834086667   Z22=249.618834086667   R33=7.56814232490378   R22=7.56814232490378   CGOffset3=0   CGOffset2=0 _
        EccV2=0   EccV3=0   Cw=0   Color=Cyan   FromFile=No   AMod=1   A2Mod=1   A3Mod=1   JMod=1   I2Mod=1   I3Mod=1   MMod=1   WMod=1   GUID=05012ce0-08f4-415a-bfe5-1b1a2078b146   Notes="Added 4/28/2026 4:30:27 PM"
   SectionName=S4-88.368   Material=CONC_C40_0.7E   Shape=Pipe   t3=21.944   tw=0.752   Area=50.065626899186   TorsConst=5628.20715235001   I33=2814.10357617501   I22=2814.10357617501   I23=0   AS2=25.0538187040078   AS3=25.0538187040078 _
        S33Top=256.48045717964   S33Bot=256.48045717964   S22Left=256.48045717964   S22Right=256.48045717964   Z33=337.865602730667   Z22=337.865602730667   R33=7.4972192178167   R22=7.4972192178167   CGOffset3=0   CGOffset2=0   EccV2=0 _
        EccV3=0   Cw=0   Color=Green   FromFile=No   AMod=1   A2Mod=1   A3Mod=1   JMod=1   I2Mod=1   I3Mod=1   MMod=1   WMod=1   GUID=378984ab-0419-474d-a18e-2a66934e8ef7   Notes="Added 4/28/2026 3:43:33 PM"
   SectionName="S5-108 to top"   Material=CONC_C40_0.7E   Shape=Pipe   t3=21.52   tw=0.5   Area=33.0181387892287   TorsConst=3649.25054614641   I33=1824.6252730732   I22=1824.6252730732   I23=0   AS2=16.5152956082305   AS3=16.5152956082305 _
        S33Top=169.574839504945   S33Bot=169.574839504945   S22Left=169.574839504945   S22Right=169.574839504945   Z33=220.961866666667   Z22=220.961866666667   R33=7.43379445505457   R22=7.43379445505457   CGOffset3=0   CGOffset2=0 _
        EccV2=0   EccV3=0   Cw=0   Color=Red   FromFile=No   AMod=1   A2Mod=1   A3Mod=1   JMod=1   I2Mod=1   I3Mod=1   MMod=1   WMod=1   GUID=5f7e9555-bc9b-4fb4-954d-151a77b86d11   Notes="Added 4/28/2026 3:44:07 PM"
   SectionName="610x305 UB 179 Crane Girder"   Material=S275   Shape="I/Wide Flange"   t3=0.62   t2=0.307   tf=0.023   tw=0.014   t2b=0.307   tfb=0.023   FilletRadius=0   Area=0.022158   TorsConst=2.88959742E-06   I33=0.001479563614 _
        I22=0.0001110466195   I23=0   AS2=0.00868   AS3=0.0117683333333333   S33Top=0.0047727858516129   S33Bot=0.0047727858516129   S22Left=0.000723430745928339   S22Right=0.000723430745928339   Z33=0.005368583   Z22=0.0011119895 _
        R33=0.258405374509884   R22=0.0707925232464174   CGOffset3=0   CGOffset2=0   EccV2=0   EccV3=0   Cw=9.88280856622087E-06   Color=Yellow   FromFile=No   AMod=1   A2Mod=1   A3Mod=1   JMod=1   I2Mod=1   I3Mod=1   MMod=1   WMod=1 _
        GUID=98634ef3-cc0b-442f-b9e1-f29ab1121534   Notes="Added 21/5/2026 10:00:00 am"

 
TABLE:  "FRAME SECTION PROPERTIES 13 - TIME DEPENDENT"
   SectionName=S1-0   TypeSize=Auto   AutoSFSize=1
   SectionName=S1-0-01   TypeSize=Auto   AutoSFSize=1
   SectionName=S1-0-02   TypeSize=Auto   AutoSFSize=1
   SectionName=S1-0-03   TypeSize=Auto   AutoSFSize=1
   SectionName=S1-0-04   TypeSize=Auto   AutoSFSize=1
   SectionName=S1-0-05   TypeSize=Auto   AutoSFSize=1
   SectionName=S1-0-06   TypeSize=Auto   AutoSFSize=1
   SectionName=S1-0-07   TypeSize=Auto   AutoSFSize=1
   SectionName=S1-0-08   TypeSize=Auto   AutoSFSize=1
   SectionName=S1-0-09   TypeSize=Auto   AutoSFSize=1
   SectionName=S2-38   TypeSize=Auto   AutoSFSize=1
   SectionName=S3-42   TypeSize=Auto   AutoSFSize=1
   SectionName=S3-42-01   TypeSize=Auto   AutoSFSize=1
   SectionName=S3-42-02   TypeSize=Auto   AutoSFSize=1
   SectionName=S3-42-03   TypeSize=Auto   AutoSFSize=1
   SectionName=S3-42-04   TypeSize=Auto   AutoSFSize=1
   SectionName=S3-42-05   TypeSize=Auto   AutoSFSize=1
   SectionName=S3-42-06   TypeSize=Auto   AutoSFSize=1
   SectionName=S3-42-07   TypeSize=Auto   AutoSFSize=1
   SectionName=S4-88.368   TypeSize=Auto   AutoSFSize=1
   SectionName="S5-108 to top"   TypeSize=Auto   AutoSFSize=1
 
TABLE:  "FUNCTION - PLOT FUNCTIONS"
   PlotFunc="Input Energy"   Type=Energy   Component=Input   Mode=All
 
TABLE:  "FUNCTION - POWER SPECTRAL DENSITY - USER"
   Name=UNIFPSD   Frequency=0   Value=1
   Name=UNIFPSD   Frequency=1   Value=1
 
TABLE:  "FUNCTION - RESPONSE SPECTRUM - CHINESE 2010"
   Name=GB2010   FuncDamp=0.04   AlphaMax=0.08   SI="8 (0.20g)"   Tg=0.3   PTDF=1
   Name=RS_0.20   FuncDamp=0.04   AlphaMax=0.2   SI="8 (0.20g)"   Tg=0.4   PTDF=1
   Name=RS_0.5   FuncDamp=0.04   AlphaMax=0.5   SI="8 (0.20g)"   Tg=0.4   PTDF=1
   Name=RS_0.7   FuncDamp=0.04   AlphaMax=0.7   SI="8 (0.20g)"   Tg=0.4   PTDF=1
   Name=RS_0.45   FuncDamp=0.04   AlphaMax=0.45   SI="8 (0.20g)"   Tg=0.4   PTDF=1
   Name=RS_0.4   FuncDamp=0.04   AlphaMax=0.4   SI="8 (0.20g)"   Tg=0.4   PTDF=1
 
TABLE:  "FUNCTION - RESPONSE SPECTRUM - GB501112006"
   Name=GB50011_wrong   FuncDamp=0.04   A=0.16   SI="8 (0.20g)"   Tg=0.3
 
TABLE:  "FUNCTION - RESPONSE SPECTRUM - USER"
   Name=UNIFRS   Period=0   Accel=1   FuncDamp=0.05
   Name=UNIFRS   Period=1   Accel=1
 
TABLE:  "FUNCTION - STEADY STATE - USER"
   Name=UNIFSS   Frequency=0   Value=1
   Name=UNIFSS   Frequency=1   Value=1
 
TABLE:  "FUNCTION - TIME HISTORY - USER"
   Name=RAMPTH   Time=0   Value=0
   Name=RAMPTH   Time=1   Value=1
   Name=RAMPTH   Time=4   Value=1
   Name=UNIFTH   Time=0   Value=1
   Name=UNIFTH   Time=1   Value=1
 
TABLE:  "GRID LINES"
   CoordSys=GLOBAL   AxisDir=X   GridID=X1   XRYZCoord=-1   LineType=Primary   LineColor=Gray8Dark   Visible=Yes   BubbleLoc=End   AllVisible=Yes   BubbleSize=2.4384
   CoordSys=GLOBAL   AxisDir=X   GridID=X2   XRYZCoord=0   LineType=Primary   LineColor=Gray8Dark   Visible=Yes   BubbleLoc=End
   CoordSys=GLOBAL   AxisDir=X   GridID=X3   XRYZCoord=1   LineType=Primary   LineColor=Gray8Dark   Visible=Yes   BubbleLoc=End
   CoordSys=GLOBAL   AxisDir=Y   GridID=Y1   XRYZCoord=-1   LineType=Primary   LineColor=Gray8Dark   Visible=Yes   BubbleLoc=Start
   CoordSys=GLOBAL   AxisDir=Y   GridID=Y2   XRYZCoord=0   LineType=Primary   LineColor=Gray8Dark   Visible=Yes   BubbleLoc=Start
   CoordSys=GLOBAL   AxisDir=Y   GridID=Y3   XRYZCoord=1   LineType=Primary   LineColor=Gray8Dark   Visible=Yes   BubbleLoc=Start
   CoordSys=GLOBAL   AxisDir=Z   GridID=Z1   XRYZCoord=0   LineType=Primary   LineColor=Gray8Dark   Visible=Yes   BubbleLoc=End
   CoordSys=GLOBAL   AxisDir=Z   GridID=Z2   XRYZCoord=38   LineType=Primary   LineColor=Gray8Dark   Visible=Yes   BubbleLoc=End
   CoordSys=GLOBAL   AxisDir=Z   GridID=Z3   XRYZCoord=42   LineType=Primary   LineColor=Gray8Dark   Visible=Yes   BubbleLoc=End
   CoordSys=GLOBAL   AxisDir=Z   GridID=Z4   XRYZCoord=88.368   LineType=Primary   LineColor=Gray8Dark   Visible=Yes   BubbleLoc=End
   CoordSys=GLOBAL   AxisDir=Z   GridID=Z5   XRYZCoord=108   LineType=Primary   LineColor=Gray8Dark   Visible=Yes   BubbleLoc=End
   CoordSys=GLOBAL   AxisDir=Z   GridID=Z6   XRYZCoord=134.736   LineType=Primary   LineColor=Gray8Dark   Visible=Yes   BubbleLoc=End
   CoordSys=GLOBAL   AxisDir=Z   GridID=Z7   XRYZCoord=141.36   LineType=Primary   LineColor=Gray8Dark   Visible=Yes   BubbleLoc=End
   CoordSys=GLOBAL   AxisDir=Z   GridID=Z8   XRYZCoord=187.728   LineType=Primary   LineColor=Gray8Dark   Visible=Yes   BubbleLoc=End
   CoordSys=GLOBAL   AxisDir=Z   GridID=Z9   XRYZCoord=234.096   LineType=Primary   LineColor=Gray8Dark   Visible=Yes   BubbleLoc=End
   CoordSys=GLOBAL   AxisDir=Z   GridID=Z10   XRYZCoord=238.3   LineType=Primary   LineColor=Gray8Dark   Visible=Yes   BubbleLoc=End
 
TABLE:  "GROUPS 1 - DEFINITIONS"
   GroupName=ALL   Selection=Yes   SectionCut=Yes   Steel=Yes   Concrete=Yes   Aluminum=Yes   ColdFormed=Yes   Stage=Yes   Bridge=Yes   AutoSeismic=No   AutoWind=No   SelDesSteel=No   SelDesAlum=No   SelDesCold=No   MassWeight=Yes   Color=Red
 
TABLE:  "JOINT CONSTRAINT ASSIGNMENTS"
   Joint=21_108m   Constraint=BODY1
 
TABLE:  "JOINT COORDINATES"
   Joint=1_0m   CoordSys=GLOBAL   CoordType=Cartesian   XorR=0   Y=0   Z=0   SpecialJt=No   GUID=a366d84e-3dbf-433e-9ebf-fec9b59a062b
   Joint=6_19m   CoordSys=GLOBAL   CoordType=Cartesian   XorR=0   Y=0   Z=19   SpecialJt=No   GUID=67609654-3d33-4d70-b14d-5b7808afca1c
   Joint=11_38m   CoordSys=GLOBAL   CoordType=Cartesian   XorR=0   Y=0   Z=38   SpecialJt=No   GUID=ea082b53-dc89-419d-bcd3-827534156788
   Joint=12_42m   CoordSys=GLOBAL   CoordType=Cartesian   XorR=0   Y=0   Z=42   SpecialJt=No   GUID=5b5048d1-7f27-4607-97b3-0a191d067097
   Joint=2_3.8m   CoordSys=GLOBAL   CoordType=Cartesian   XorR=0   Y=0   Z=3.8   SpecialJt=No   GUID=f0a75c83-6a03-44fd-bff8-6b7f055cb918
   Joint=3_7.6m   CoordSys=GLOBAL   CoordType=Cartesian   XorR=0   Y=0   Z=7.6   SpecialJt=No   GUID=aa62f2a3-4f03-4742-96a0-3aff18ab139d
   Joint=5_15.2   CoordSys=GLOBAL   CoordType=Cartesian   XorR=0   Y=0   Z=15.2   SpecialJt=No   GUID=165a6e90-eb11-4081-b7d7-9478436fd8f8
   Joint=21_108m   CoordSys=GLOBAL   CoordType=Cartesian   XorR=0   Y=0   Z=108   SpecialJt=No   GUID=e0d8a0e5-6034-482f-aaa8-7526521c9825
   Joint=4_11.4m   CoordSys=GLOBAL   CoordType=Cartesian   XorR=0   Y=0   Z=11.4   SpecialJt=No   GUID=8d6cebad-7808-4f5a-89e8-8e9383b322dd
   Joint=7_22.8m   CoordSys=GLOBAL   CoordType=Cartesian   XorR=0   Y=0   Z=22.8   SpecialJt=No   GUID=cda1feef-c40b-4191-9079-67aaeda51cd5
   Joint=8_26.6m   CoordSys=GLOBAL   CoordType=Cartesian   XorR=0   Y=0   Z=26.6   SpecialJt=No   GUID=f3ac7872-0923-4930-b7c5-5746bef8bc2d
   Joint=9_30.4m   CoordSys=GLOBAL   CoordType=Cartesian   XorR=0   Y=0   Z=30.4   SpecialJt=No   GUID=0a1dd1db-d45c-4f51-b91d-b00215966c86
   Joint=10_34.2m   CoordSys=GLOBAL   CoordType=Cartesian   XorR=0   Y=0   Z=34.2   SpecialJt=No   GUID=88b253f0-0e0a-43cc-a659-4bac57776def
   Joint=17_70.98m   CoordSys=GLOBAL   CoordType=Cartesian   XorR=0   Y=0   Z=70.98   SpecialJt=No   GUID=2c47e404-5a35-400a-960b-3f1bfc37e042
   Joint=26_238.3m   CoordSys=GLOBAL   CoordType=Cartesian   XorR=0   Y=0   Z=238.3   SpecialJt=No   GUID=afdc0465-b99c-4975-99e7-81491a4dbd93
   Joint=13_47.796m   CoordSys=GLOBAL   CoordType=Cartesian   XorR=0   Y=0   Z=47.796   SpecialJt=No   GUID=c6851289-d27d-439a-9afc-41111853f99c
   Joint=14_53.592n   CoordSys=GLOBAL   CoordType=Cartesian   XorR=0   Y=0   Z=53.592   SpecialJt=No   GUID=6b646f36-4731-4f18-b58d-655e4392b127
   Joint=15_59.388m   CoordSys=GLOBAL   CoordType=Cartesian   XorR=0   Y=0   Z=59.388   SpecialJt=No   GUID=f2f31ffd-f634-46ce-8b72-89e608015a5d
   Joint=16_65.184m   CoordSys=GLOBAL   CoordType=Cartesian   XorR=0   Y=0   Z=65.184   SpecialJt=No   GUID=40d52e69-b1d1-4844-b7c1-09d1f7c01e50
   Joint=18_76.776m   CoordSys=GLOBAL   CoordType=Cartesian   XorR=0   Y=0   Z=76.776   SpecialJt=No   GUID=b426dfc6-7be7-4f61-a524-cca421058488
   Joint=19_82.572m   CoordSys=GLOBAL   CoordType=Cartesian   XorR=0   Y=0   Z=82.572   SpecialJt=No   GUID=d1c2c76f-2bf4-4f50-83fa-88b2561a5c44
   Joint=20_88.368m   CoordSys=GLOBAL   CoordType=Cartesian   XorR=0   Y=0   Z=88.368   SpecialJt=No   GUID=c8ba36ad-ac96-4d4d-a2a4-2c14be20ade9
   Joint=23_141.36m   CoordSys=GLOBAL   CoordType=Cartesian   XorR=0   Y=0   Z=141.36   SpecialJt=Yes   GUID=f7faefe2-ed7c-4aa4-8ac1-e9126fa20640
   Joint=22_134.736m   CoordSys=GLOBAL   CoordType=Cartesian   XorR=0   Y=0   Z=134.736   SpecialJt=Yes   GUID=9722f754-6734-4f49-97ad-89851da39387
   Joint=24_187.728m   CoordSys=GLOBAL   CoordType=Cartesian   XorR=0   Y=0   Z=187.728   SpecialJt=Yes   GUID=38645838-07cf-4942-8c14-7511112b07a4
   Joint=25_234.096m   CoordSys=GLOBAL   CoordType=Cartesian   XorR=0   Y=0   Z=234.096   SpecialJt=Yes   GUID=49e12217-4868-48a7-b120-f56b92062e5f
 
TABLE:  "JOINT LOADS - FORCE"
   Joint=1_0m   LoadPat=SUPERDEAD   CoordSys=GLOBAL   F1=0   F2=0   F3=-9943.9   M1=0   M2=0   M3=0   GUID=cb7932a6-c93c-4797-9937-0dae7881746f
   Joint=12_42m   LoadPat=SUPERDEAD   CoordSys=GLOBAL   F1=0   F2=0   F3=-996.3   M1=0   M2=0   M3=0   GUID=49ba0f85-874e-4eea-8a25-8bada0204399
   Joint=20_88.368m   LoadPat=SUPERDEAD   CoordSys=GLOBAL   F1=0   F2=0   F3=-668.7   M1=0   M2=0   M3=0   GUID=36309262-6e9c-4438-8912-3b672a26e69b
   Joint=26_238.3m   LoadPat=SUPERDEAD   CoordSys=GLOBAL   F1=0   F2=0   F3=-9943.9   M1=0   M2=0   M3=0   GUID=ed7e4de6-8fc8-43c3-be2a-d83410e5e92b
   Joint=22_134.736m   LoadPat=SUPERDEAD   CoordSys=GLOBAL   F1=0   F2=0   F3=-544.3   M1=0   M2=0   M3=0   GUID=9727cd5a-3531-4508-9fb0-f6b3c8e4c0f5
   Joint=23_141.36m   LoadPat=SUPERDEAD   CoordSys=GLOBAL   F1=0   F2=0   F3=-544.3   M1=0   M2=0   M3=0   GUID=6bb55327-df87-4bab-b6a8-bb1581fff4cd
   Joint=24_187.728m   LoadPat=SUPERDEAD   CoordSys=GLOBAL   F1=0   F2=0   F3=-544.3   M1=0   M2=0   M3=0   GUID=d07a902e-9941-4708-ab0b-dff064a8a865
   Joint=25_234.096m   LoadPat=SUPERDEAD   CoordSys=GLOBAL   F1=0   F2=0   F3=-544.3   M1=0   M2=0   M3=0   GUID=8c80769c-6a92-4236-8349-914ca4e5e723
 
TABLE:  "JOINT PATTERN DEFINITIONS"
   Pattern=Default
 
TABLE:  "JOINT RESTRAINT ASSIGNMENTS"
   Joint=1_0m   U1=Yes   U2=Yes   U3=Yes   R1=Yes   R2=Yes   R3=Yes
 
TABLE:  "LOAD CASE DEFINITIONS"
   Case=DEAD_P_Delta   Type=NonStatic   InitialCond=Static   DesTypeOpt="Prog Det"   DesignType=Dead   DesActOpt="Prog Det"   DesignAct=Non-Composite   AutoType=None   RunCase=Yes   GUID=e43bde37-3b4a-48c9-a51c-0dfdd0cda41b
   Case=MODAL_PD   Type=LinModal   InitialCond=Static   DesTypeOpt="Prog Det"   DesignType=Other   DesActOpt="Prog Det"   DesignAct=Other   AutoType=None   RunCase=Yes   GUID=78711409-d5e6-4fcb-8b6c-9893421c1e25
   Case=SUPERDEAD   Type=LinStatic   InitialCond=Zero   DesTypeOpt="Prog Det"   DesignType="Super Dead"   DesActOpt="Prog Det"   DesignAct="Long-Term Composite"   AutoType=None   RunCase=Yes   GUID=5711cbc7-2aa2-4312-ba8e-4ba0075f11a0
   Case=WIND_X   Type=LinStatic   InitialCond=Zero   DesTypeOpt="Prog Det"   DesignType=Wind   DesActOpt="Prog Det"   DesignAct="Short-Term Composite"   AutoType=None   RunCase=Yes   GUID=76146df8-1de4-4a3e-9dc8-2ada850a311d
   Case=WIND_Y   Type=LinStatic   InitialCond=Zero   DesTypeOpt="Prog Det"   DesignType=Wind   DesActOpt="Prog Det"   DesignAct="Short-Term Composite"   AutoType=None   RunCase=Yes   GUID=5a286060-b38c-47c0-9ddf-ab42430048ef
   Case=Static   Type=NonStatic   InitialCond=Zero   DesTypeOpt="Prog Det"   DesignType=Dead   DesActOpt="Prog Det"   DesignAct=Non-Composite   AutoType=None   RunCase=Yes   GUID=daf24f9d-0383-4896-9158-ba8314ced59c
   Case=RSX   Type=LinRespSpec   ModalCase=MODAL_PD   DesTypeOpt="Prog Det"   DesignType=Quake   DesActOpt="Prog Det"   DesignAct="Short-Term Composite"   AutoType=None   RunCase=Yes   GUID=e336d156-4ed0-488d-85fe-0e6dcf5137ed
   Case=RSY   Type=LinRespSpec   ModalCase=MODAL_PD   DesTypeOpt="Prog Det"   DesignType=Quake   DesActOpt="Prog Det"   DesignAct="Short-Term Composite"   AutoType=None   RunCase=Yes   GUID=77ac91f6-7203-4aec-ac8e-a3b1efa011de
   Case="Static-1.2 Factor"   Type=NonStatic   InitialCond=Zero   DesTypeOpt="Prog Det"   DesignType=Dead   DesActOpt="Prog Det"   DesignAct=Non-Composite   AutoType=None   RunCase=Yes   GUID=42ce3425-265e-47d0-967f-d6db4ce75e58
   Case=WIND_X-1   Type=LinStatic   InitialCond="Static-1.2 Factor"   DesTypeOpt="Prog Det"   DesignType=Wind   DesActOpt="Prog Det"   DesignAct="Short-Term Composite"   AutoType=None   RunCase=Yes   GUID=140e6483-f320-465f-997e-e24cfc0906e6
   Case=RSZ   Type=LinRespSpec   ModalCase=MODAL_PD   DesTypeOpt="Prog Det"   DesignType=Quake   DesActOpt="Prog Det"   DesignAct="Short-Term Composite"   AutoType=None   RunCase=Yes   GUID=798c0cf2-f327-4015-a63d-0425acd9e0e1
 
TABLE:  "LOAD PATTERN DEFINITIONS"
   LoadPat=DEAD   DesignType=Dead   SelfWtMult=1   GUID=78278ed5-4903-4947-9903-f0ec2cb84bb5
   LoadPat=SUPERDEAD   DesignType="Super Dead"   SelfWtMult=0   GUID=926d92d3-f31e-41d9-b19c-012c78e98b46   Notes="Added 4/28/2026 4:34:29 PM"
   LoadPat=WIND_X   DesignType=Wind   SelfWtMult=0   AutoLoad=CHINESE2010   GUID=404b5343-61aa-431e-a742-6808f54166c9   Notes="Added 4/28/2026 4:34:57 PM"
   LoadPat=WIND_Y   DesignType=Wind   SelfWtMult=0   AutoLoad=CHINESE2010   GUID=69fb0a1b-597d-417c-9aa1-03bb4341e327   Notes="Added 4/28/2026 4:35:09 PM"
 
TABLE:  "MASS SOURCE"
   MassSource=MSSSRC1   Elements=Yes   Masses=Yes   Loads=Yes   IsDefault=Yes   LoadPat=SUPERDEAD   Multiplier=1
 
TABLE:  "MATERIAL PROPERTIES 01 - GENERAL"
   Material=CONC_C40_0.7E   Type=Concrete   Grade="GB50010 C40"   SymType=Isotropic   TempDepend=No   Color=Green   GUID=52830b63-cebe-42a4-a552-daa9dfffa296   Notes="China GB GB50010 C40 added 4/28/2026 3:37:23 PM"
   Material=GB-fpk1570   Type=Tendon   Grade="GB 50010fpk1570"   SymType=Uniaxial   TempDepend=No   Color=Magenta   GUID=92a057c8-a68e-4eff-aca7-c1d79cea60e6   Notes="GB GB 50010fpk1570 4/29/2026 9:38:19 AM"
   Material=STEEL_Q355   Type=Steel   Grade=Q355   SymType=Isotropic   TempDepend=No   Color=Magenta   GUID=b8f3e95c-9c7d-49e1-9f93-033834b31d79   Notes="GB Q355 4/28/2026 3:24:28 PM"
 
TABLE:  "MATERIAL PROPERTIES 02 - BASIC MECHANICAL PROPERTIES"
   Material=CONC_C40_0.7E   UnitWeight=25   UnitMass=2.55   E1=22750000   G12=9479166.66666667   U12=0.2   A1=1E-05
   Material=GB-fpk1570   UnitWeight=77   UnitMass=7.85   E1=195000000   A1=1.17E-05
   Material=STEEL_Q355   UnitWeight=77   UnitMass=7.85   E1=206000000   G12=79230769.2307692   U12=0.3   A1=1.2E-05
 
TABLE:  "MATERIAL PROPERTIES 03A - STEEL DATA"
   Material=STEEL_Q355   Fy=355000   Fu=470000   EffFy=380000   EffFu=520000   SSCurveOpt=Simple   SSHysType=Kinematic   SHard=0.015   SMax=0.11   SRup=0.17   FinalSlope=-0.1   CoupModType="Von Mises"
 
TABLE:  "MATERIAL PROPERTIES 03B - CONCRETE DATA"
   Material=CONC_C40_0.7E   Fc=26800   eFc=26800   LtWtConc=No   SSCurveOpt=Mander   SSHysType=Takeda   SFc=0.002   SCap=0.005   FinalSlope=-0.1   FAngle=0   DAngle=0   CoupModType="Modified Darwin-Pecknold"
 
TABLE:  "MATERIAL PROPERTIES 03F - TENDON DATA"
   Material=GB-fpk1570   Fy=1330000   Fu=1570000   SSCurveOpt="250 ksi"   SSHysType=Kinematic   FinalSlope=-0.1   CoupModType="Von Mises"
 
TABLE:  "MATERIAL PROPERTIES 03J - COUPLED NONLINEAR VON MISES DATA"
   Material=GB-fpk1570   YieldStress=1330000   LinIsoHard=No   LinKinHard=No   NLIsoSaHard=No
   Material=STEEL_Q355   YieldStress=380000   LinIsoHard=No   LinKinHard=No   NLIsoSaHard=No
 
TABLE:  "MATERIAL PROPERTIES 06 - DAMPING PARAMETERS"
   Material=CONC_C40_0.7E   ModalRatio=0   VisMass=0   VisStiff=0   HysMass=0   HysStiff=0
   Material=GB-fpk1570   ModalRatio=0   VisMass=0   VisStiff=0   HysMass=0   HysStiff=0
   Material=STEEL_Q355   ModalRatio=0   VisMass=0   VisStiff=0   HysMass=0   HysStiff=0
 
TABLE:  "MATERIAL PROPERTIES 09 - ACCEPTANCE CRITERIA"
   Material=CONC_C40_0.7E   IOTens=0.01   LSTens=0.02   CPTens=0.05   IOComp=-0.003   LSComp=-0.006   CPComp=-0.015   IgnoreTens=Yes
   Material=GB-fpk1570   IOTens=0.015   LSTens=0.023   CPTens=0.03   IOComp=-0.015   LSComp=-0.023   CPComp=-0.03
   Material=STEEL_Q355   IOTens=0.01   LSTens=0.02   CPTens=0.05   IOComp=-0.005   LSComp=-0.01   CPComp=-0.02
 
TABLE:  "OPTIONS - COLORS - DISPLAY"
   DeviceType=Screen   Points=Blue   LinesFrame=Blue   LinesFrmDL=Blue   LinesCable=Green   LinesTendon=Green   SpringLinks=Green   Restraints=Green   Releases=Green   Axes=Cyan   Text=Black   ShadowLines=Gray8Dark   GuideLines=Gray8Dark _
        Highlight=Red   Selection=10504778   AreaFillBot=Red   AreaFillTop=16744703   AreaFillSd=Red   AreaEdge=DarkRed   SolidF1=Red   SolidF2=Blue   SolidF3=Green   SolidF4=Yellow   SolidF5=White   SolidF6=Cyan   SolidEdge=DarkRed _
        Floor=Gray4   Background=White   BGLowLeft=White   BGLowRight=White   BGUpRight=White   Darkness=0
   DeviceType=Printer   Points=Gray8Dark   LinesFrame=Black   LinesFrmDL=Gray4   LinesCable=Black   LinesTendon=Black   SpringLinks=Gray8Dark   Restraints=Gray8Dark   Releases=Gray4   Axes=Black   Text=Black   ShadowLines=Gray4 _
        GuideLines=Gray4   Highlight=Black   Selection=Black   AreaFillBot=Gray4   AreaFillTop=Gray8Dark   AreaFillSd=Gray4   AreaEdge=Black   SolidF1=Gray1Light   SolidF2=Gray2   SolidF3=Gray3   SolidF4=Gray4   SolidF5=Gray5 _
        SolidF6=Gray6   SolidEdge=Black   Floor=Gray4   Background=White   BGLowLeft=White   BGLowRight=White   BGUpRight=White   Darkness=0.5
   DeviceType="Color Printer"   Points=Blue   LinesFrame=Blue   LinesFrmDL=Blue   LinesCable=Green   LinesTendon=Green   SpringLinks=Green   Restraints=Green   Releases=Green   Axes=Cyan   Text=Black   ShadowLines=Gray8Dark _
        GuideLines=Gray8Dark   Highlight=Red   Selection=10504778   AreaFillBot=Red   AreaFillTop=16744703   AreaFillSd=Red   AreaEdge=DarkRed   SolidF1=Red   SolidF2=Blue   SolidF3=Green   SolidF4=Yellow   SolidF5=White   SolidF6=Cyan _
        SolidEdge=DarkRed   Floor=Gray4   Background=White   BGLowLeft=White   BGLowRight=White   BGUpRight=White   Darkness=0.5
 
TABLE:  "OPTIONS - COLORS - OUTPUT"
   DeviceType=Screen   Contour1=13107400   Contour2=6553828   Contour3=Red   Contour4=16639   Contour5=Orange   Contour6=43775   Contour7=54527   Contour8=Yellow   Contour9=65408   Contour10=Green   Contour11=8453888   Contour12=Cyan _
        Contour13=16755200   Contour14=16733440   Contour15=Blue   Transpare=0   Ratio1=Cyan   Ratio2=Green   Ratio3=Yellow   Ratio4=Orange   Ratio5=Red   RatioNotD=Gray4   RatioNotC=Red   RatioVal1=0.5   RatioVal2=0.7   RatioVal3=0.9 _
        RatioVal4=1   DFillPos=Blue   DFillNeg=Red   DFillRPos=9498256   DFillRNeg=9498256
   DeviceType=Printer   Contour1=Black   Contour2=3158064   Contour3=4210752   Contour4=5263440   Contour5=6316128   Contour6=7368816   Contour7=Gray8Dark   Contour8=Gray7   Contour9=Gray6   Contour10=Gray5   Contour11=Gray4 _
        Contour12=Gray3   Contour13=Gray2   Contour14=Gray1Light   Contour15=White   Transpare=0   Ratio1=Gray2   Ratio2=Gray4   Ratio3=Gray8Dark   Ratio4=4210752   Ratio5=Black   RatioNotD=Gray4   RatioNotC=Black   RatioVal1=0.5 _
        RatioVal2=0.7   RatioVal3=0.9   RatioVal4=1   DFillPos=Gray8Dark   DFillNeg=Gray8Dark   DFillRPos=4210752   DFillRNeg=4210752
   DeviceType="Color Printer"   Contour1=13107400   Contour2=6553828   Contour3=Red   Contour4=16639   Contour5=Orange   Contour6=43775   Contour7=54527   Contour8=Yellow   Contour9=65408   Contour10=Green   Contour11=8453888 _
        Contour12=Cyan   Contour13=16755200   Contour14=16733440   Contour15=Blue   Transpare=0   Ratio1=Cyan   Ratio2=Green   Ratio3=Yellow   Ratio4=Orange   Ratio5=Red   RatioNotD=Gray4   RatioNotC=Red   RatioVal1=0.5   RatioVal2=0.7 _
        RatioVal3=0.9   RatioVal4=1   DFillPos=Blue   DFillNeg=Red   DFillRPos=9498256   DFillRNeg=9498256
 
TABLE:  "PREFERENCES - ALUMINUM DESIGN - AA 2015"
   THDesign=Envelopes   SRatioLimit=1   Provision=LRFD   LatFact=1.33333333333333   UseLatFact=No   Bridge=No   PhiTy=0.9   PhiTr=0.75   PhiC=0.9   PhiBo=0.9   PhiBr=0.75   PhiVo=0.9   PhiVr=0.75
 
TABLE:  "PREFERENCES - COLD FORMED DESIGN - AISI-16"
   THDesign=Envelopes   FrameType="Braced Frame"   SRatioLimit=1   SOMethod="General 2nd Order"   Provision=LRFD   LatFact=1.33333333333333   UseLatFact=No   PhiTy=0.9   PhiTr=0.75   PhiC=0.85   PhiB=0.9   PhiBPipe=0.95   PhiV=0.95
 
TABLE:  "PREFERENCES - CONCRETE DESIGN - ACI 318-19"
   THDesign=Envelopes   NumCurves=24   NumPoints=11   MinEccen=Yes   BCCDesign=Yes   IgnoreBPu=Yes   CTorsion=Yes   PatLLF=0.75   UFLimit=0.95   SeisCat=D   Rho=1   Sds=0.5   PhiT=0.9   PhiCTied=0.65   PhiCSpiral=0.75   PhiV=0.75 _
        PhiVSeismic=0.6   PhiVJoint=0.85   TanTheta=1
 
TABLE:  "PREFERENCES - CONCRETE SHELL DESIGN - EUROCODE 2-2004"
   Country="CEN Default"   GammaS=1.15   GammaC=1.5   AlphaCC=1   AlphaCT=1   CrackCond="Program Determined"   ShrDesMet="Method 1"   CotTheta=1
 
TABLE:  "PREFERENCES - DIMENSIONAL"
   MergeTol=0.001   FineGrid=0.25   Nudge=0.25   SelectTol=3   SnapTol=12   SLineThick=2   PLineThick=4   MaxFont=12   MinFont=6   AutoZoom=10   ShrinkFact=70   TextFileLen=240
 
TABLE:  "PREFERENCES - STEEL DESIGN - AISC 360-16"
   THDesign=Envelopes   FrameType=SMF   PatLLF=0.75   SRatioLimit=0.95   MaxIter=1   SDC=D   SeisCode=No   SeisLoad=No   ImpFactor=1   SystemRho=1   SystemSds=0.5   SystemR=8   SystemCd=5.5   Omega0=3   Provision=LRFD _
        AMethod="Direct Analysis"   SOMethod="General 2nd Order"   SRMethod="Tau-b Fixed"   NLCoeff=0.002   PhiB=0.9   PhiC=0.9   PhiTY=0.9   PhiTF=0.75   PhiV=0.9   PhiVRolledI=1   PhiVT=0.9   PlugWeld=Yes   HSSWelding=ERW   HSSReduceT=No _
        CheckDefl=No   DLRat=120   SDLAndLLRat=120   LLRat=360   TotalRat=240   NetRat=240
 
TABLE:  "PROGRAM CONTROL"
   ProgramName=SAP2000   Version=25.1.0   CurrUnits="KN, m, C"   SteelCode="AISC 360-16"   ConcCode="ACI 318-19"   AlumCode="AA 2015"   ColdCode=AISI-16   RegenHinge=Yes
 
TABLE:  "PROJECT INFORMATION"
   Item="Company Name"   Data="NESSUS Solutions Ltd"
   Item="Client Name"
   Item="Project Name"
   Item="Project Number"
   Item="Model Name"
   Item="Model Description"
   Item="Revision Number"
   Item="Frame Type"
   Item=Engineer
   Item=Checker
   Item=Supervisor
   Item="Issue Code"
   Item="Design Code"
 
TABLE:  "REBAR SIZES"
   RebarID=#2   Area=3.2258E-05   Diameter=0.00635
   RebarID=#3   Area=7.09675996154547E-05   Diameter=0.009525
   RebarID=#4   Area=0.000129032001922727   Diameter=0.0127
   RebarID=#5   Area=0.000199999601538181   Diameter=0.015875
   RebarID=#6   Area=0.000283870398461819   Diameter=0.01905
   RebarID=#7   Area=0.000387096015381813   Diameter=0.022225
   RebarID=#8   Area=0.000509676413843632   Diameter=0.0254
   RebarID=#9   Area=0.00064516   Diameter=0.0286512005329132
   RebarID=#10   Area=0.00081935318769455   Diameter=0.0322579995155334
   RebarID=#11   Area=0.00100644956308365   Diameter=0.0358139991521835
   RebarID=#14   Area=0.00145161   Diameter=0.0430021989583969
   RebarID=#18   Area=0.00258064   Diameter=0.0573277992248535
   RebarID=10M   Area=0.000100000002655387   Diameter=0.011300000667572
   RebarID=15M   Area=0.000200000005310774   Diameter=0.0159999999403954
   RebarID=20M   Area=0.000300000017579794   Diameter=0.0194999997854233
   RebarID=25M   Area=0.000500000022890568   Diameter=0.0252000016093254
   RebarID=30M   Area=0.000700000008974075   Diameter=0.0299000008821487
   RebarID=35M   Area=0.00100000004578114   Diameter=0.0357000011444092
   RebarID=45M   Area=0.00150000010712624   Diameter=0.0437000003576279
   RebarID=55M   Area=0.00250000007599831   Diameter=0.0564000033855438
   RebarID=6d   Area=2.83000004149973E-05   Diameter=0.006000000166893
   RebarID=8d   Area=5.02999995571375E-05   Diameter=0.00799999997019768
   RebarID=10d   Area=7.85000013634562E-05   Diameter=0.00999999977350235
   RebarID=12d   Area=0.000113000009249449   Diameter=0.012000000333786
   RebarID=14d   Area=0.000154000010818839   Diameter=0.0140000008940697
   RebarID=16d   Area=0.000201000015431643   Diameter=0.0159999999403954
   RebarID=20d   Area=0.000314000005453825   Diameter=0.0199999995470047
   RebarID=25d   Area=0.000491000008711815   Diameter=0.0250000001907349
   RebarID=26d   Area=0.000531000029001236   Diameter=0.0259999997138977
   RebarID=28d   Area=0.000616000043275356   Diameter=0.0280000017881393
   RebarID=N12   Area=0.000113000009249449   Diameter=0.012000000333786
   RebarID=N16   Area=0.000201000015431643   Diameter=0.0159999999403954
   RebarID=N20   Area=0.000314000005453825   Diameter=0.0199999995470047
   RebarID=N24   Area=0.000452000036997795   Diameter=0.024000000667572
   RebarID=N28   Area=0.000616000043275356   Diameter=0.0280000017881393
   RebarID=N32   Area=0.00080400006172657   Diameter=0.0319999998807907
   RebarID=N36   Area=0.00102000001747131   Diameter=0.036000001001358
 
TABLE:  "SOLID PROPERTY DEFINITIONS"
   SolidProp=Solid1   Material=CONC_C40_0.7E   MatAngleA=0   MatAngleB=0   MatAngleC=0   InComp=Yes   Color=Yellow   GUID=51c202ef-46cc-437d-b6b3-ca1d4d638866
 
END TABLE DATA
